
---------- Begin Simulation Statistics ----------
simSeconds                                   0.000055                       # Number of seconds simulated (Second)
simTicks                                     54846610                       # Number of ticks simulated (Tick)
finalTick                                    54846610                       # Number of ticks from beginning of simulation (restored from checkpoints and never reset) (Tick)
simFreq                                  1000000000000                       # The number of ticks per simulated second ((Tick/Second))
hostSeconds                                      0.30                       # Real time elapsed on the host (Second)
hostTickRate                                183987311                       # The number of ticks simulated per host second (ticks/s) ((Tick/Second))
hostMemory                                     672728                       # Number of bytes of host memory used (Byte)
simInsts                                        17982                       # Number of instructions simulated (Count)
simOps                                          36243                       # Number of ops (including micro ops) simulated (Count)
hostInstRate                                    60237                       # Simulator instruction rate (inst/s) ((Count/Second))
hostOpRate                                     121405                       # Simulator op (including micro ops) rate (op/s) ((Count/Second))
system.clk_domain.clock                          1000                       # Clock period in ticks (Tick)
system.cpu.numCycles                           120543                       # Number of cpu cycles simulated (Cycle)
system.cpu.numWorkItemsStarted                      0                       # Number of work items this cpu started (Count)
system.cpu.numWorkItemsCompleted                    0                       # Number of work items this cpu completed (Count)
system.cpu.instsAdded                           68179                       # Number of instructions added to the IQ (excludes non-spec) (Count)
system.cpu.nonSpecInstsAdded                        1                       # Number of non-speculative instructions added to the IQ (Count)
system.cpu.instsIssued                          58464                       # Number of instructions issued (Count)
system.cpu.squashedInstsIssued                    165                       # Number of squashed instructions issued (Count)
system.cpu.squashedInstsExamined                31931                       # Number of squashed instructions iterated over during squash; mainly for profiling (Count)
system.cpu.squashedOperandsExamined             43083                       # Number of squashed operands that are examined and possibly removed from graph (Count)
system.cpu.squashedNonSpecRemoved                   1                       # Number of squashed non-spec instructions that were removed (Count)
system.cpu.numIssuedDist::samples               70869                       # Number of insts issued each cycle (Count)
system.cpu.numIssuedDist::mean               0.824959                       # Number of insts issued each cycle (Count)
system.cpu.numIssuedDist::stdev              1.765351                       # Number of insts issued each cycle (Count)
system.cpu.numIssuedDist::underflows                0      0.00%      0.00% # Number of insts issued each cycle (Count)
system.cpu.numIssuedDist::0                     53778     75.88%     75.88% # Number of insts issued each cycle (Count)
system.cpu.numIssuedDist::1                      3889      5.49%     81.37% # Number of insts issued each cycle (Count)
system.cpu.numIssuedDist::2                      3010      4.25%     85.62% # Number of insts issued each cycle (Count)
system.cpu.numIssuedDist::3                      2551      3.60%     89.22% # Number of insts issued each cycle (Count)
system.cpu.numIssuedDist::4                      2350      3.32%     92.53% # Number of insts issued each cycle (Count)
system.cpu.numIssuedDist::5                      2098      2.96%     95.49% # Number of insts issued each cycle (Count)
system.cpu.numIssuedDist::6                      1889      2.67%     98.16% # Number of insts issued each cycle (Count)
system.cpu.numIssuedDist::7                       754      1.06%     99.22% # Number of insts issued each cycle (Count)
system.cpu.numIssuedDist::8                       550      0.78%    100.00% # Number of insts issued each cycle (Count)
system.cpu.numIssuedDist::overflows                 0      0.00%    100.00% # Number of insts issued each cycle (Count)
system.cpu.numIssuedDist::min_value                 0                       # Number of insts issued each cycle (Count)
system.cpu.numIssuedDist::max_value                 8                       # Number of insts issued each cycle (Count)
system.cpu.numIssuedDist::total                 70869                       # Number of insts issued each cycle (Count)
system.cpu.statFuBusy::No_OpClass                   0      0.00%      0.00% # attempts to use FU when none available (Count)
system.cpu.statFuBusy::IntAlu                     641     83.68%     83.68% # attempts to use FU when none available (Count)
system.cpu.statFuBusy::IntMult                      0      0.00%     83.68% # attempts to use FU when none available (Count)
system.cpu.statFuBusy::IntDiv                       0      0.00%     83.68% # attempts to use FU when none available (Count)
system.cpu.statFuBusy::FloatAdd                     0      0.00%     83.68% # attempts to use FU when none available (Count)
system.cpu.statFuBusy::FloatCmp                     0      0.00%     83.68% # attempts to use FU when none available (Count)
system.cpu.statFuBusy::FloatCvt                     0      0.00%     83.68% # attempts to use FU when none available (Count)
system.cpu.statFuBusy::FloatMult                    0      0.00%     83.68% # attempts to use FU when none available (Count)
system.cpu.statFuBusy::FloatMultAcc                 0      0.00%     83.68% # attempts to use FU when none available (Count)
system.cpu.statFuBusy::FloatDiv                     0      0.00%     83.68% # attempts to use FU when none available (Count)
system.cpu.statFuBusy::FloatMisc                    0      0.00%     83.68% # attempts to use FU when none available (Count)
system.cpu.statFuBusy::FloatSqrt                    0      0.00%     83.68% # attempts to use FU when none available (Count)
system.cpu.statFuBusy::SimdAdd                      1      0.13%     83.81% # attempts to use FU when none available (Count)
system.cpu.statFuBusy::SimdAddAcc                   0      0.00%     83.81% # attempts to use FU when none available (Count)
system.cpu.statFuBusy::SimdAlu                     15      1.96%     85.77% # attempts to use FU when none available (Count)
system.cpu.statFuBusy::SimdCmp                      0      0.00%     85.77% # attempts to use FU when none available (Count)
system.cpu.statFuBusy::SimdCvt                      2      0.26%     86.03% # attempts to use FU when none available (Count)
system.cpu.statFuBusy::SimdMisc                     1      0.13%     86.16% # attempts to use FU when none available (Count)
system.cpu.statFuBusy::SimdMult                     0      0.00%     86.16% # attempts to use FU when none available (Count)
system.cpu.statFuBusy::SimdMultAcc                  0      0.00%     86.16% # attempts to use FU when none available (Count)
system.cpu.statFuBusy::SimdShift                    0      0.00%     86.16% # attempts to use FU when none available (Count)
system.cpu.statFuBusy::SimdShiftAcc                 0      0.00%     86.16% # attempts to use FU when none available (Count)
system.cpu.statFuBusy::SimdDiv                      0      0.00%     86.16% # attempts to use FU when none available (Count)
system.cpu.statFuBusy::SimdSqrt                     0      0.00%     86.16% # attempts to use FU when none available (Count)
system.cpu.statFuBusy::SimdFloatAdd                 0      0.00%     86.16% # attempts to use FU when none available (Count)
system.cpu.statFuBusy::SimdFloatAlu                 0      0.00%     86.16% # attempts to use FU when none available (Count)
system.cpu.statFuBusy::SimdFloatCmp                 0      0.00%     86.16% # attempts to use FU when none available (Count)
system.cpu.statFuBusy::SimdFloatCvt                 0      0.00%     86.16% # attempts to use FU when none available (Count)
system.cpu.statFuBusy::SimdFloatDiv                 0      0.00%     86.16% # attempts to use FU when none available (Count)
system.cpu.statFuBusy::SimdFloatMisc                0      0.00%     86.16% # attempts to use FU when none available (Count)
system.cpu.statFuBusy::SimdFloatMult                0      0.00%     86.16% # attempts to use FU when none available (Count)
system.cpu.statFuBusy::SimdFloatMultAcc             0      0.00%     86.16% # attempts to use FU when none available (Count)
system.cpu.statFuBusy::SimdFloatSqrt                0      0.00%     86.16% # attempts to use FU when none available (Count)
system.cpu.statFuBusy::SimdReduceAdd                0      0.00%     86.16% # attempts to use FU when none available (Count)
system.cpu.statFuBusy::SimdReduceAlu                0      0.00%     86.16% # attempts to use FU when none available (Count)
system.cpu.statFuBusy::SimdReduceCmp                0      0.00%     86.16% # attempts to use FU when none available (Count)
system.cpu.statFuBusy::SimdFloatReduceAdd            0      0.00%     86.16% # attempts to use FU when none available (Count)
system.cpu.statFuBusy::SimdFloatReduceCmp            0      0.00%     86.16% # attempts to use FU when none available (Count)
system.cpu.statFuBusy::SimdAes                      0      0.00%     86.16% # attempts to use FU when none available (Count)
system.cpu.statFuBusy::SimdAesMix                   0      0.00%     86.16% # attempts to use FU when none available (Count)
system.cpu.statFuBusy::SimdSha1Hash                 0      0.00%     86.16% # attempts to use FU when none available (Count)
system.cpu.statFuBusy::SimdSha1Hash2                0      0.00%     86.16% # attempts to use FU when none available (Count)
system.cpu.statFuBusy::SimdSha256Hash               0      0.00%     86.16% # attempts to use FU when none available (Count)
system.cpu.statFuBusy::SimdSha256Hash2              0      0.00%     86.16% # attempts to use FU when none available (Count)
system.cpu.statFuBusy::SimdShaSigma2                0      0.00%     86.16% # attempts to use FU when none available (Count)
system.cpu.statFuBusy::SimdShaSigma3                0      0.00%     86.16% # attempts to use FU when none available (Count)
system.cpu.statFuBusy::SimdPredAlu                  0      0.00%     86.16% # attempts to use FU when none available (Count)
system.cpu.statFuBusy::MemRead                     59      7.70%     93.86% # attempts to use FU when none available (Count)
system.cpu.statFuBusy::MemWrite                    21      2.74%     96.61% # attempts to use FU when none available (Count)
system.cpu.statFuBusy::FloatMemRead                10      1.31%     97.91% # attempts to use FU when none available (Count)
system.cpu.statFuBusy::FloatMemWrite               16      2.09%    100.00% # attempts to use FU when none available (Count)
system.cpu.statFuBusy::IprAccess                    0      0.00%    100.00% # attempts to use FU when none available (Count)
system.cpu.statFuBusy::InstPrefetch                 0      0.00%    100.00% # attempts to use FU when none available (Count)
system.cpu.statIssuedInstType_0::No_OpClass          856      1.46%      1.46% # Number of instructions issued per FU type, per thread (Count)
system.cpu.statIssuedInstType_0::IntAlu         44767     76.57%     78.04% # Number of instructions issued per FU type, per thread (Count)
system.cpu.statIssuedInstType_0::IntMult           20      0.03%     78.07% # Number of instructions issued per FU type, per thread (Count)
system.cpu.statIssuedInstType_0::IntDiv            86      0.15%     78.22% # Number of instructions issued per FU type, per thread (Count)
system.cpu.statIssuedInstType_0::FloatAdd          140      0.24%     78.46% # Number of instructions issued per FU type, per thread (Count)
system.cpu.statIssuedInstType_0::FloatCmp            0      0.00%     78.46% # Number of instructions issued per FU type, per thread (Count)
system.cpu.statIssuedInstType_0::FloatCvt            0      0.00%     78.46% # Number of instructions issued per FU type, per thread (Count)
system.cpu.statIssuedInstType_0::FloatMult            0      0.00%     78.46% # Number of instructions issued per FU type, per thread (Count)
system.cpu.statIssuedInstType_0::FloatMultAcc            0      0.00%     78.46% # Number of instructions issued per FU type, per thread (Count)
system.cpu.statIssuedInstType_0::FloatDiv            0      0.00%     78.46% # Number of instructions issued per FU type, per thread (Count)
system.cpu.statIssuedInstType_0::FloatMisc            0      0.00%     78.46% # Number of instructions issued per FU type, per thread (Count)
system.cpu.statIssuedInstType_0::FloatSqrt            0      0.00%     78.46% # Number of instructions issued per FU type, per thread (Count)
system.cpu.statIssuedInstType_0::SimdAdd          141      0.24%     78.70% # Number of instructions issued per FU type, per thread (Count)
system.cpu.statIssuedInstType_0::SimdAddAcc            0      0.00%     78.70% # Number of instructions issued per FU type, per thread (Count)
system.cpu.statIssuedInstType_0::SimdAlu          524      0.90%     79.59% # Number of instructions issued per FU type, per thread (Count)
system.cpu.statIssuedInstType_0::SimdCmp            0      0.00%     79.59% # Number of instructions issued per FU type, per thread (Count)
system.cpu.statIssuedInstType_0::SimdCvt          461      0.79%     80.38% # Number of instructions issued per FU type, per thread (Count)
system.cpu.statIssuedInstType_0::SimdMisc          480      0.82%     81.20% # Number of instructions issued per FU type, per thread (Count)
system.cpu.statIssuedInstType_0::SimdMult            0      0.00%     81.20% # Number of instructions issued per FU type, per thread (Count)
system.cpu.statIssuedInstType_0::SimdMultAcc            0      0.00%     81.20% # Number of instructions issued per FU type, per thread (Count)
system.cpu.statIssuedInstType_0::SimdShift          112      0.19%     81.40% # Number of instructions issued per FU type, per thread (Count)
system.cpu.statIssuedInstType_0::SimdShiftAcc            0      0.00%     81.40% # Number of instructions issued per FU type, per thread (Count)
system.cpu.statIssuedInstType_0::SimdDiv            0      0.00%     81.40% # Number of instructions issued per FU type, per thread (Count)
system.cpu.statIssuedInstType_0::SimdSqrt            0      0.00%     81.40% # Number of instructions issued per FU type, per thread (Count)
system.cpu.statIssuedInstType_0::SimdFloatAdd            0      0.00%     81.40% # Number of instructions issued per FU type, per thread (Count)
system.cpu.statIssuedInstType_0::SimdFloatAlu            0      0.00%     81.40% # Number of instructions issued per FU type, per thread (Count)
system.cpu.statIssuedInstType_0::SimdFloatCmp            0      0.00%     81.40% # Number of instructions issued per FU type, per thread (Count)
system.cpu.statIssuedInstType_0::SimdFloatCvt            0      0.00%     81.40% # Number of instructions issued per FU type, per thread (Count)
system.cpu.statIssuedInstType_0::SimdFloatDiv            0      0.00%     81.40% # Number of instructions issued per FU type, per thread (Count)
system.cpu.statIssuedInstType_0::SimdFloatMisc            0      0.00%     81.40% # Number of instructions issued per FU type, per thread (Count)
system.cpu.statIssuedInstType_0::SimdFloatMult            0      0.00%     81.40% # Number of instructions issued per FU type, per thread (Count)
system.cpu.statIssuedInstType_0::SimdFloatMultAcc            0      0.00%     81.40% # Number of instructions issued per FU type, per thread (Count)
system.cpu.statIssuedInstType_0::SimdFloatSqrt            0      0.00%     81.40% # Number of instructions issued per FU type, per thread (Count)
system.cpu.statIssuedInstType_0::SimdReduceAdd            0      0.00%     81.40% # Number of instructions issued per FU type, per thread (Count)
system.cpu.statIssuedInstType_0::SimdReduceAlu            0      0.00%     81.40% # Number of instructions issued per FU type, per thread (Count)
system.cpu.statIssuedInstType_0::SimdReduceCmp            0      0.00%     81.40% # Number of instructions issued per FU type, per thread (Count)
system.cpu.statIssuedInstType_0::SimdFloatReduceAdd            0      0.00%     81.40% # Number of instructions issued per FU type, per thread (Count)
system.cpu.statIssuedInstType_0::SimdFloatReduceCmp            0      0.00%     81.40% # Number of instructions issued per FU type, per thread (Count)
system.cpu.statIssuedInstType_0::SimdAes            0      0.00%     81.40% # Number of instructions issued per FU type, per thread (Count)
system.cpu.statIssuedInstType_0::SimdAesMix            0      0.00%     81.40% # Number of instructions issued per FU type, per thread (Count)
system.cpu.statIssuedInstType_0::SimdSha1Hash            0      0.00%     81.40% # Number of instructions issued per FU type, per thread (Count)
system.cpu.statIssuedInstType_0::SimdSha1Hash2            0      0.00%     81.40% # Number of instructions issued per FU type, per thread (Count)
system.cpu.statIssuedInstType_0::SimdSha256Hash            0      0.00%     81.40% # Number of instructions issued per FU type, per thread (Count)
system.cpu.statIssuedInstType_0::SimdSha256Hash2            0      0.00%     81.40% # Number of instructions issued per FU type, per thread (Count)
system.cpu.statIssuedInstType_0::SimdShaSigma2            0      0.00%     81.40% # Number of instructions issued per FU type, per thread (Count)
system.cpu.statIssuedInstType_0::SimdShaSigma3            0      0.00%     81.40% # Number of instructions issued per FU type, per thread (Count)
system.cpu.statIssuedInstType_0::SimdPredAlu            0      0.00%     81.40% # Number of instructions issued per FU type, per thread (Count)
system.cpu.statIssuedInstType_0::MemRead         6393     10.93%     92.33% # Number of instructions issued per FU type, per thread (Count)
system.cpu.statIssuedInstType_0::MemWrite         3157      5.40%     97.73% # Number of instructions issued per FU type, per thread (Count)
system.cpu.statIssuedInstType_0::FloatMemRead          833      1.42%     99.16% # Number of instructions issued per FU type, per thread (Count)
system.cpu.statIssuedInstType_0::FloatMemWrite          494      0.84%    100.00% # Number of instructions issued per FU type, per thread (Count)
system.cpu.statIssuedInstType_0::IprAccess            0      0.00%    100.00% # Number of instructions issued per FU type, per thread (Count)
system.cpu.statIssuedInstType_0::InstPrefetch            0      0.00%    100.00% # Number of instructions issued per FU type, per thread (Count)
system.cpu.statIssuedInstType_0::total          58464                       # Number of instructions issued per FU type, per thread (Count)
system.cpu.issueRate                         0.485005                       # Inst issue rate ((Count/Cycle))
system.cpu.fuBusy                                 766                       # FU busy when requested (Count)
system.cpu.fuBusyRate                        0.013102                       # FU busy rate (busy events/executed inst) ((Count/Count))
system.cpu.intInstQueueReads                   182094                       # Number of integer instruction queue reads (Count)
system.cpu.intInstQueueWrites                   93888                       # Number of integer instruction queue writes (Count)
system.cpu.intInstQueueWakeupAccesses           52578                       # Number of integer instruction queue wakeup accesses (Count)
system.cpu.fpInstQueueReads                      6634                       # Number of floating instruction queue reads (Count)
system.cpu.fpInstQueueWrites                     6261                       # Number of floating instruction queue writes (Count)
system.cpu.fpInstQueueWakeupAccesses             2967                       # Number of floating instruction queue wakeup accesses (Count)
system.cpu.vecInstQueueReads                        0                       # Number of vector instruction queue reads (Count)
system.cpu.vecInstQueueWrites                       0                       # Number of vector instruction queue writes (Count)
system.cpu.vecInstQueueWakeupAccesses               0                       # Number of vector instruction queue wakeup accesses (Count)
system.cpu.intAluAccesses                       55041                       # Number of integer alu accesses (Count)
system.cpu.fpAluAccesses                         3333                       # Number of floating point alu accesses (Count)
system.cpu.vecAluAccesses                           0                       # Number of vector alu accesses (Count)
system.cpu.numInsts                             56852                       # Number of executed instructions (Count)
system.cpu.numLoadInsts                          6910                       # Number of load instructions executed (Count)
system.cpu.numSquashedInsts                      1612                       # Number of squashed instructions skipped in execute (Count)
system.cpu.numSwp                                   0                       # Number of swp insts executed (Count)
system.cpu.numNop                                   0                       # Number of nop insts executed (Count)
system.cpu.numRefs                              10440                       # Number of memory reference insts executed (Count)
system.cpu.numBranches                           5621                       # Number of branches executed (Count)
system.cpu.numStoreInsts                         3530                       # Number of stores executed (Count)
system.cpu.numRate                           0.471633                       # Inst execution rate ((Count/Cycle))
system.cpu.timesIdled                             511                       # Number of times that the entire CPU went into an idle state and unscheduled itself (Count)
system.cpu.idleCycles                           49674                       # Total number of cycles that the CPU has spent unscheduled due to idling (Cycle)
system.cpu.committedInsts                       17982                       # Number of Instructions Simulated (Count)
system.cpu.committedOps                         36243                       # Number of Ops (including micro ops) Simulated (Count)
system.cpu.cpi                               6.703537                       # CPI: Cycles Per Instruction ((Cycle/Count))
system.cpu.totalCpi                          6.703537                       # CPI: Total CPI of All Threads ((Cycle/Count))
system.cpu.ipc                               0.149175                       # IPC: Instructions Per Cycle ((Count/Cycle))
system.cpu.totalIpc                          0.149175                       # IPC: Total IPC of All Threads ((Count/Cycle))
system.cpu.intRegfileReads                      76473                       # Number of integer regfile reads (Count)
system.cpu.intRegfileWrites                     43741                       # Number of integer regfile writes (Count)
system.cpu.fpRegfileReads                        4482                       # Number of floating regfile reads (Count)
system.cpu.fpRegfileWrites                       2335                       # Number of floating regfile writes (Count)
system.cpu.ccRegfileReads                       29507                       # number of cc regfile reads (Count)
system.cpu.ccRegfileWrites                      17212                       # number of cc regfile writes (Count)
system.cpu.miscRegfileReads                     23001                       # number of misc regfile reads (Count)
system.cpu.MemDepUnit__0.insertedLoads           7970                       # Number of loads inserted to the mem dependence unit. (Count)
system.cpu.MemDepUnit__0.insertedStores          4294                       # Number of stores inserted to the mem dependence unit. (Count)
system.cpu.MemDepUnit__0.conflictingLoads           34                       # Number of conflicting loads. (Count)
system.cpu.MemDepUnit__0.conflictingStores           35                       # Number of conflicting stores. (Count)
system.cpu.MemDepUnit__1.insertedLoads              0                       # Number of loads inserted to the mem dependence unit. (Count)
system.cpu.MemDepUnit__1.insertedStores             0                       # Number of stores inserted to the mem dependence unit. (Count)
system.cpu.MemDepUnit__1.conflictingLoads            0                       # Number of conflicting loads. (Count)
system.cpu.MemDepUnit__1.conflictingStores            0                       # Number of conflicting stores. (Count)
system.cpu.MemDepUnit__2.insertedLoads              0                       # Number of loads inserted to the mem dependence unit. (Count)
system.cpu.MemDepUnit__2.insertedStores             0                       # Number of stores inserted to the mem dependence unit. (Count)
system.cpu.MemDepUnit__2.conflictingLoads            0                       # Number of conflicting loads. (Count)
system.cpu.MemDepUnit__2.conflictingStores            0                       # Number of conflicting stores. (Count)
system.cpu.MemDepUnit__3.insertedLoads              0                       # Number of loads inserted to the mem dependence unit. (Count)
system.cpu.MemDepUnit__3.insertedStores             0                       # Number of stores inserted to the mem dependence unit. (Count)
system.cpu.MemDepUnit__3.conflictingLoads            0                       # Number of conflicting loads. (Count)
system.cpu.MemDepUnit__3.conflictingStores            0                       # Number of conflicting stores. (Count)
system.cpu.branchPred.lookups                    9591                       # Number of BP lookups (Count)
system.cpu.branchPred.condPredicted              7681                       # Number of conditional branches predicted (Count)
system.cpu.branchPred.condIncorrect              1252                       # Number of conditional branches incorrect (Count)
system.cpu.branchPred.BTBLookups                 3759                       # Number of BTB lookups (Count)
system.cpu.branchPred.BTBHits                    2665                       # Number of BTB hits (Count)
system.cpu.branchPred.BTBHitRatio            0.708965                       # BTB Hit Ratio (Ratio)
system.cpu.branchPred.RASUsed                     543                       # Number of times the RAS was used to get a target. (Count)
system.cpu.branchPred.RASIncorrect                  1                       # Number of incorrect RAS predictions. (Count)
system.cpu.branchPred.indirectLookups             255                       # Number of indirect predictor lookups. (Count)
system.cpu.branchPred.indirectHits                  9                       # Number of indirect target hits. (Count)
system.cpu.branchPred.indirectMisses              246                       # Number of indirect misses. (Count)
system.cpu.branchPred.indirectMispredicted          108                       # Number of mispredicted indirect branches. (Count)
system.cpu.commit.commitSquashedInsts           31218                       # The number of squashed insts skipped by commit (Count)
system.cpu.commit.branchMispredicts               908                       # The number of times a branch was mispredicted (Count)
system.cpu.commit.numCommittedDist::samples        66237                       # Number of insts commited each cycle (Count)
system.cpu.commit.numCommittedDist::mean     0.547172                       # Number of insts commited each cycle (Count)
system.cpu.commit.numCommittedDist::stdev     1.551888                       # Number of insts commited each cycle (Count)
system.cpu.commit.numCommittedDist::underflows            0      0.00%      0.00% # Number of insts commited each cycle (Count)
system.cpu.commit.numCommittedDist::0           55033     83.08%     83.08% # Number of insts commited each cycle (Count)
system.cpu.commit.numCommittedDist::1            3394      5.12%     88.21% # Number of insts commited each cycle (Count)
system.cpu.commit.numCommittedDist::2            1977      2.98%     91.19% # Number of insts commited each cycle (Count)
system.cpu.commit.numCommittedDist::3            2312      3.49%     94.68% # Number of insts commited each cycle (Count)
system.cpu.commit.numCommittedDist::4             981      1.48%     96.17% # Number of insts commited each cycle (Count)
system.cpu.commit.numCommittedDist::5             444      0.67%     96.84% # Number of insts commited each cycle (Count)
system.cpu.commit.numCommittedDist::6             298      0.45%     97.29% # Number of insts commited each cycle (Count)
system.cpu.commit.numCommittedDist::7             357      0.54%     97.82% # Number of insts commited each cycle (Count)
system.cpu.commit.numCommittedDist::8            1441      2.18%    100.00% # Number of insts commited each cycle (Count)
system.cpu.commit.numCommittedDist::overflows            0      0.00%    100.00% # Number of insts commited each cycle (Count)
system.cpu.commit.numCommittedDist::min_value            0                       # Number of insts commited each cycle (Count)
system.cpu.commit.numCommittedDist::max_value            8                       # Number of insts commited each cycle (Count)
system.cpu.commit.numCommittedDist::total        66237                       # Number of insts commited each cycle (Count)
system.cpu.commit.instsCommitted                17982                       # Number of instructions committed (Count)
system.cpu.commit.opsCommitted                  36243                       # Number of ops (including micro ops) committed (Count)
system.cpu.commit.memRefs                        6602                       # Number of memory references committed (Count)
system.cpu.commit.loads                          3942                       # Number of loads committed (Count)
system.cpu.commit.amos                              0                       # Number of atomic instructions committed (Count)
system.cpu.commit.membars                           0                       # Number of memory barriers committed (Count)
system.cpu.commit.branches                       4146                       # Number of branches committed (Count)
system.cpu.commit.vectorInstructions                0                       # Number of committed Vector instructions. (Count)
system.cpu.commit.floating                       1899                       # Number of committed floating point instructions. (Count)
system.cpu.commit.integer                       34443                       # Number of committed integer instructions. (Count)
system.cpu.commit.functionCalls                   245                       # Number of function calls committed. (Count)
system.cpu.commit.committedInstType_0::No_OpClass          392      1.08%      1.08% # Class of committed instruction (Count)
system.cpu.commit.committedInstType_0::IntAlu        28072     77.45%     78.54% # Class of committed instruction (Count)
system.cpu.commit.committedInstType_0::IntMult           14      0.04%     78.58% # Class of committed instruction (Count)
system.cpu.commit.committedInstType_0::IntDiv           45      0.12%     78.70% # Class of committed instruction (Count)
system.cpu.commit.committedInstType_0::FloatAdd           64      0.18%     78.88% # Class of committed instruction (Count)
system.cpu.commit.committedInstType_0::FloatCmp            0      0.00%     78.88% # Class of committed instruction (Count)
system.cpu.commit.committedInstType_0::FloatCvt            0      0.00%     78.88% # Class of committed instruction (Count)
system.cpu.commit.committedInstType_0::FloatMult            0      0.00%     78.88% # Class of committed instruction (Count)
system.cpu.commit.committedInstType_0::FloatMultAcc            0      0.00%     78.88% # Class of committed instruction (Count)
system.cpu.commit.committedInstType_0::FloatDiv            0      0.00%     78.88% # Class of committed instruction (Count)
system.cpu.commit.committedInstType_0::FloatMisc            0      0.00%     78.88% # Class of committed instruction (Count)
system.cpu.commit.committedInstType_0::FloatSqrt            0      0.00%     78.88% # Class of committed instruction (Count)
system.cpu.commit.committedInstType_0::SimdAdd           94      0.26%     79.14% # Class of committed instruction (Count)
system.cpu.commit.committedInstType_0::SimdAddAcc            0      0.00%     79.14% # Class of committed instruction (Count)
system.cpu.commit.committedInstType_0::SimdAlu          286      0.79%     79.92% # Class of committed instruction (Count)
system.cpu.commit.committedInstType_0::SimdCmp            0      0.00%     79.92% # Class of committed instruction (Count)
system.cpu.commit.committedInstType_0::SimdCvt          280      0.77%     80.70% # Class of committed instruction (Count)
system.cpu.commit.committedInstType_0::SimdMisc          347      0.96%     81.65% # Class of committed instruction (Count)
system.cpu.commit.committedInstType_0::SimdMult            0      0.00%     81.65% # Class of committed instruction (Count)
system.cpu.commit.committedInstType_0::SimdMultAcc            0      0.00%     81.65% # Class of committed instruction (Count)
system.cpu.commit.committedInstType_0::SimdShift           47      0.13%     81.78% # Class of committed instruction (Count)
system.cpu.commit.committedInstType_0::SimdShiftAcc            0      0.00%     81.78% # Class of committed instruction (Count)
system.cpu.commit.committedInstType_0::SimdDiv            0      0.00%     81.78% # Class of committed instruction (Count)
system.cpu.commit.committedInstType_0::SimdSqrt            0      0.00%     81.78% # Class of committed instruction (Count)
system.cpu.commit.committedInstType_0::SimdFloatAdd            0      0.00%     81.78% # Class of committed instruction (Count)
system.cpu.commit.committedInstType_0::SimdFloatAlu            0      0.00%     81.78% # Class of committed instruction (Count)
system.cpu.commit.committedInstType_0::SimdFloatCmp            0      0.00%     81.78% # Class of committed instruction (Count)
system.cpu.commit.committedInstType_0::SimdFloatCvt            0      0.00%     81.78% # Class of committed instruction (Count)
system.cpu.commit.committedInstType_0::SimdFloatDiv            0      0.00%     81.78% # Class of committed instruction (Count)
system.cpu.commit.committedInstType_0::SimdFloatMisc            0      0.00%     81.78% # Class of committed instruction (Count)
system.cpu.commit.committedInstType_0::SimdFloatMult            0      0.00%     81.78% # Class of committed instruction (Count)
system.cpu.commit.committedInstType_0::SimdFloatMultAcc            0      0.00%     81.78% # Class of committed instruction (Count)
system.cpu.commit.committedInstType_0::SimdFloatSqrt            0      0.00%     81.78% # Class of committed instruction (Count)
system.cpu.commit.committedInstType_0::SimdReduceAdd            0      0.00%     81.78% # Class of committed instruction (Count)
system.cpu.commit.committedInstType_0::SimdReduceAlu            0      0.00%     81.78% # Class of committed instruction (Count)
system.cpu.commit.committedInstType_0::SimdReduceCmp            0      0.00%     81.78% # Class of committed instruction (Count)
system.cpu.commit.committedInstType_0::SimdFloatReduceAdd            0      0.00%     81.78% # Class of committed instruction (Count)
system.cpu.commit.committedInstType_0::SimdFloatReduceCmp            0      0.00%     81.78% # Class of committed instruction (Count)
system.cpu.commit.committedInstType_0::SimdAes            0      0.00%     81.78% # Class of committed instruction (Count)
system.cpu.commit.committedInstType_0::SimdAesMix            0      0.00%     81.78% # Class of committed instruction (Count)
system.cpu.commit.committedInstType_0::SimdSha1Hash            0      0.00%     81.78% # Class of committed instruction (Count)
system.cpu.commit.committedInstType_0::SimdSha1Hash2            0      0.00%     81.78% # Class of committed instruction (Count)
system.cpu.commit.committedInstType_0::SimdSha256Hash            0      0.00%     81.78% # Class of committed instruction (Count)
system.cpu.commit.committedInstType_0::SimdSha256Hash2            0      0.00%     81.78% # Class of committed instruction (Count)
system.cpu.commit.committedInstType_0::SimdShaSigma2            0      0.00%     81.78% # Class of committed instruction (Count)
system.cpu.commit.committedInstType_0::SimdShaSigma3            0      0.00%     81.78% # Class of committed instruction (Count)
system.cpu.commit.committedInstType_0::SimdPredAlu            0      0.00%     81.78% # Class of committed instruction (Count)
system.cpu.commit.committedInstType_0::MemRead         3616      9.98%     91.76% # Class of committed instruction (Count)
system.cpu.commit.committedInstType_0::MemWrite         2277      6.28%     98.04% # Class of committed instruction (Count)
system.cpu.commit.committedInstType_0::FloatMemRead          326      0.90%     98.94% # Class of committed instruction (Count)
system.cpu.commit.committedInstType_0::FloatMemWrite          383      1.06%    100.00% # Class of committed instruction (Count)
system.cpu.commit.committedInstType_0::IprAccess            0      0.00%    100.00% # Class of committed instruction (Count)
system.cpu.commit.committedInstType_0::InstPrefetch            0      0.00%    100.00% # Class of committed instruction (Count)
system.cpu.commit.committedInstType_0::total        36243                       # Class of committed instruction (Count)
system.cpu.commit.commitEligibleSamples          1441                       # number cycles where commit BW limit reached (Cycle)
system.cpu.dcache.demandHits::cpu.data           7954                       # number of demand (read+write) hits (Count)
system.cpu.dcache.demandHits::total              7954                       # number of demand (read+write) hits (Count)
system.cpu.dcache.overallHits::cpu.data          7954                       # number of overall hits (Count)
system.cpu.dcache.overallHits::total             7954                       # number of overall hits (Count)
system.cpu.dcache.demandMisses::cpu.data         1078                       # number of demand (read+write) misses (Count)
system.cpu.dcache.demandMisses::total            1078                       # number of demand (read+write) misses (Count)
system.cpu.dcache.overallMisses::cpu.data         1078                       # number of overall misses (Count)
system.cpu.dcache.overallMisses::total           1078                       # number of overall misses (Count)
system.cpu.dcache.demandMissLatency::cpu.data     61968905                       # number of demand (read+write) miss ticks (Tick)
system.cpu.dcache.demandMissLatency::total     61968905                       # number of demand (read+write) miss ticks (Tick)
system.cpu.dcache.overallMissLatency::cpu.data     61968905                       # number of overall miss ticks (Tick)
system.cpu.dcache.overallMissLatency::total     61968905                       # number of overall miss ticks (Tick)
system.cpu.dcache.demandAccesses::cpu.data         9032                       # number of demand (read+write) accesses (Count)
system.cpu.dcache.demandAccesses::total          9032                       # number of demand (read+write) accesses (Count)
system.cpu.dcache.overallAccesses::cpu.data         9032                       # number of overall (read+write) accesses (Count)
system.cpu.dcache.overallAccesses::total         9032                       # number of overall (read+write) accesses (Count)
system.cpu.dcache.demandMissRate::cpu.data     0.119353                       # miss rate for demand accesses (Ratio)
system.cpu.dcache.demandMissRate::total      0.119353                       # miss rate for demand accesses (Ratio)
system.cpu.dcache.overallMissRate::cpu.data     0.119353                       # miss rate for overall accesses (Ratio)
system.cpu.dcache.overallMissRate::total     0.119353                       # miss rate for overall accesses (Ratio)
system.cpu.dcache.demandAvgMissLatency::cpu.data 57485.069573                       # average overall miss latency ((Cycle/Count))
system.cpu.dcache.demandAvgMissLatency::total 57485.069573                       # average overall miss latency ((Cycle/Count))
system.cpu.dcache.overallAvgMissLatency::cpu.data 57485.069573                       # average overall miss latency ((Cycle/Count))
system.cpu.dcache.overallAvgMissLatency::total 57485.069573                       # average overall miss latency ((Cycle/Count))
system.cpu.dcache.blockedCycles::no_mshrs         1370                       # number of cycles access was blocked (Cycle)
system.cpu.dcache.blockedCycles::no_targets            0                       # number of cycles access was blocked (Cycle)
system.cpu.dcache.blockedCauses::no_mshrs           21                       # number of times access was blocked (Count)
system.cpu.dcache.blockedCauses::no_targets            0                       # number of times access was blocked (Count)
system.cpu.dcache.avgBlocked::no_mshrs      65.238095                       # average number of cycles each access was blocked ((Cycle/Count))
system.cpu.dcache.avgBlocked::no_targets          nan                       # average number of cycles each access was blocked ((Cycle/Count))
system.cpu.dcache.writebacks::writebacks          147                       # number of writebacks (Count)
system.cpu.dcache.writebacks::total               147                       # number of writebacks (Count)
system.cpu.dcache.demandMshrHits::cpu.data          508                       # number of demand (read+write) MSHR hits (Count)
system.cpu.dcache.demandMshrHits::total           508                       # number of demand (read+write) MSHR hits (Count)
system.cpu.dcache.overallMshrHits::cpu.data          508                       # number of overall MSHR hits (Count)
system.cpu.dcache.overallMshrHits::total          508                       # number of overall MSHR hits (Count)
system.cpu.dcache.demandMshrMisses::cpu.data          570                       # number of demand (read+write) MSHR misses (Count)
system.cpu.dcache.demandMshrMisses::total          570                       # number of demand (read+write) MSHR misses (Count)
system.cpu.dcache.overallMshrMisses::cpu.data          570                       # number of overall MSHR misses (Count)
system.cpu.dcache.overallMshrMisses::total          570                       # number of overall MSHR misses (Count)
system.cpu.dcache.demandMshrMissLatency::cpu.data     35570950                       # number of demand (read+write) MSHR miss ticks (Tick)
system.cpu.dcache.demandMshrMissLatency::total     35570950                       # number of demand (read+write) MSHR miss ticks (Tick)
system.cpu.dcache.overallMshrMissLatency::cpu.data     35570950                       # number of overall MSHR miss ticks (Tick)
system.cpu.dcache.overallMshrMissLatency::total     35570950                       # number of overall MSHR miss ticks (Tick)
system.cpu.dcache.demandMshrMissRate::cpu.data     0.063109                       # mshr miss ratio for demand accesses (Ratio)
system.cpu.dcache.demandMshrMissRate::total     0.063109                       # mshr miss ratio for demand accesses (Ratio)
system.cpu.dcache.overallMshrMissRate::cpu.data     0.063109                       # mshr miss ratio for overall accesses (Ratio)
system.cpu.dcache.overallMshrMissRate::total     0.063109                       # mshr miss ratio for overall accesses (Ratio)
system.cpu.dcache.demandAvgMshrMissLatency::cpu.data 62405.175439                       # average overall mshr miss latency ((Cycle/Count))
system.cpu.dcache.demandAvgMshrMissLatency::total 62405.175439                       # average overall mshr miss latency ((Cycle/Count))
system.cpu.dcache.overallAvgMshrMissLatency::cpu.data 62405.175439                       # average overall mshr miss latency ((Cycle/Count))
system.cpu.dcache.overallAvgMshrMissLatency::total 62405.175439                       # average overall mshr miss latency ((Cycle/Count))
system.cpu.dcache.replacements                    324                       # number of replacements (Count)
system.cpu.dcache.ReadReq.hits::cpu.data         5535                       # number of ReadReq hits (Count)
system.cpu.dcache.ReadReq.hits::total            5535                       # number of ReadReq hits (Count)
system.cpu.dcache.ReadReq.misses::cpu.data          836                       # number of ReadReq misses (Count)
system.cpu.dcache.ReadReq.misses::total           836                       # number of ReadReq misses (Count)
system.cpu.dcache.ReadReq.missLatency::cpu.data     47077950                       # number of ReadReq miss ticks (Tick)
system.cpu.dcache.ReadReq.missLatency::total     47077950                       # number of ReadReq miss ticks (Tick)
system.cpu.dcache.ReadReq.accesses::cpu.data         6371                       # number of ReadReq accesses(hits+misses) (Count)
system.cpu.dcache.ReadReq.accesses::total         6371                       # number of ReadReq accesses(hits+misses) (Count)
system.cpu.dcache.ReadReq.missRate::cpu.data     0.131220                       # miss rate for ReadReq accesses (Ratio)
system.cpu.dcache.ReadReq.missRate::total     0.131220                       # miss rate for ReadReq accesses (Ratio)
system.cpu.dcache.ReadReq.avgMissLatency::cpu.data 56313.337321                       # average ReadReq miss latency ((Tick/Count))
system.cpu.dcache.ReadReq.avgMissLatency::total 56313.337321                       # average ReadReq miss latency ((Tick/Count))
system.cpu.dcache.ReadReq.mshrHits::cpu.data          504                       # number of ReadReq MSHR hits (Count)
system.cpu.dcache.ReadReq.mshrHits::total          504                       # number of ReadReq MSHR hits (Count)
system.cpu.dcache.ReadReq.mshrMisses::cpu.data          332                       # number of ReadReq MSHR misses (Count)
system.cpu.dcache.ReadReq.mshrMisses::total          332                       # number of ReadReq MSHR misses (Count)
system.cpu.dcache.ReadReq.mshrMissLatency::cpu.data     21154235                       # number of ReadReq MSHR miss ticks (Tick)
system.cpu.dcache.ReadReq.mshrMissLatency::total     21154235                       # number of ReadReq MSHR miss ticks (Tick)
system.cpu.dcache.ReadReq.mshrMissRate::cpu.data     0.052111                       # mshr miss rate for ReadReq accesses (Ratio)
system.cpu.dcache.ReadReq.mshrMissRate::total     0.052111                       # mshr miss rate for ReadReq accesses (Ratio)
system.cpu.dcache.ReadReq.avgMshrMissLatency::cpu.data 63717.575301                       # average ReadReq mshr miss latency ((Tick/Count))
system.cpu.dcache.ReadReq.avgMshrMissLatency::total 63717.575301                       # average ReadReq mshr miss latency ((Tick/Count))
system.cpu.dcache.WriteReq.hits::cpu.data         2419                       # number of WriteReq hits (Count)
system.cpu.dcache.WriteReq.hits::total           2419                       # number of WriteReq hits (Count)
system.cpu.dcache.WriteReq.misses::cpu.data          242                       # number of WriteReq misses (Count)
system.cpu.dcache.WriteReq.misses::total          242                       # number of WriteReq misses (Count)
system.cpu.dcache.WriteReq.missLatency::cpu.data     14890955                       # number of WriteReq miss ticks (Tick)
system.cpu.dcache.WriteReq.missLatency::total     14890955                       # number of WriteReq miss ticks (Tick)
system.cpu.dcache.WriteReq.accesses::cpu.data         2661                       # number of WriteReq accesses(hits+misses) (Count)
system.cpu.dcache.WriteReq.accesses::total         2661                       # number of WriteReq accesses(hits+misses) (Count)
system.cpu.dcache.WriteReq.missRate::cpu.data     0.090943                       # miss rate for WriteReq accesses (Ratio)
system.cpu.dcache.WriteReq.missRate::total     0.090943                       # miss rate for WriteReq accesses (Ratio)
system.cpu.dcache.WriteReq.avgMissLatency::cpu.data 61532.871901                       # average WriteReq miss latency ((Tick/Count))
system.cpu.dcache.WriteReq.avgMissLatency::total 61532.871901                       # average WriteReq miss latency ((Tick/Count))
system.cpu.dcache.WriteReq.mshrHits::cpu.data            4                       # number of WriteReq MSHR hits (Count)
system.cpu.dcache.WriteReq.mshrHits::total            4                       # number of WriteReq MSHR hits (Count)
system.cpu.dcache.WriteReq.mshrMisses::cpu.data          238                       # number of WriteReq MSHR misses (Count)
system.cpu.dcache.WriteReq.mshrMisses::total          238                       # number of WriteReq MSHR misses (Count)
system.cpu.dcache.WriteReq.mshrMissLatency::cpu.data     14416715                       # number of WriteReq MSHR miss ticks (Tick)
system.cpu.dcache.WriteReq.mshrMissLatency::total     14416715                       # number of WriteReq MSHR miss ticks (Tick)
system.cpu.dcache.WriteReq.mshrMissRate::cpu.data     0.089440                       # mshr miss rate for WriteReq accesses (Ratio)
system.cpu.dcache.WriteReq.mshrMissRate::total     0.089440                       # mshr miss rate for WriteReq accesses (Ratio)
system.cpu.dcache.WriteReq.avgMshrMissLatency::cpu.data 60574.432773                       # average WriteReq mshr miss latency ((Tick/Count))
system.cpu.dcache.WriteReq.avgMshrMissLatency::total 60574.432773                       # average WriteReq mshr miss latency ((Tick/Count))
system.cpu.dcache.power_state.pwrStateResidencyTicks::UNDEFINED     54846610                       # Cumulative time (in ticks) in various power states (Tick)
system.cpu.dcache.tags.tagsInUse           176.642570                       # Average ticks per tags in use ((Tick/Count))
system.cpu.dcache.tags.totalRefs                 8524                       # Total number of references to valid blocks. (Count)
system.cpu.dcache.tags.sampledRefs                570                       # Sample count of references to valid blocks. (Count)
system.cpu.dcache.tags.avgRefs              14.954386                       # Average number of references to valid blocks. ((Count/Count))
system.cpu.dcache.tags.warmupTick              148000                       # The tick when the warmup percentage was hit. (Tick)
system.cpu.dcache.tags.occupancies::cpu.data   176.642570                       # Average occupied blocks per tick, per requestor ((Count/Tick))
system.cpu.dcache.tags.avgOccs::cpu.data     0.690010                       # Average percentage of cache occupancy ((Ratio/Tick))
system.cpu.dcache.tags.avgOccs::total        0.690010                       # Average percentage of cache occupancy ((Ratio/Tick))
system.cpu.dcache.tags.occupanciesTaskId::1024          246                       # Occupied blocks per task id (Count)
system.cpu.dcache.tags.ageTaskId_1024::0           91                       # Occupied blocks per task id, per block age (Count)
system.cpu.dcache.tags.ageTaskId_1024::1          155                       # Occupied blocks per task id, per block age (Count)
system.cpu.dcache.tags.ratioOccsTaskId::1024     0.960938                       # Ratio of occupied blocks and all blocks, per task id (Ratio)
system.cpu.dcache.tags.tagAccesses              18634                       # Number of tag accesses (Count)
system.cpu.dcache.tags.dataAccesses             18634                       # Number of data accesses (Count)
system.cpu.dcache.tags.power_state.pwrStateResidencyTicks::UNDEFINED     54846610                       # Cumulative time (in ticks) in various power states (Tick)
system.cpu.decode.idleCycles                    34057                       # Number of cycles decode is idle (Cycle)
system.cpu.decode.blockedCycles                 24502                       # Number of cycles decode is blocked (Cycle)
system.cpu.decode.runCycles                      9939                       # Number of cycles decode is running (Cycle)
system.cpu.decode.unblockCycles                  1382                       # Number of cycles decode is unblocking (Cycle)
system.cpu.decode.squashCycles                    989                       # Number of cycles decode is squashing (Cycle)
system.cpu.decode.branchResolved                 2755                       # Number of times decode resolved a branch (Count)
system.cpu.decode.branchMispred                   357                       # Number of times decode detected a branch misprediction (Count)
system.cpu.decode.decodedInsts                  76084                       # Number of instructions handled by decode (Count)
system.cpu.decode.squashedInsts                  1695                       # Number of squashed instructions handled by decode (Count)
system.cpu.dtb_walker_cache.blockedCycles::no_mshrs            0                       # number of cycles access was blocked (Cycle)
system.cpu.dtb_walker_cache.blockedCycles::no_targets            0                       # number of cycles access was blocked (Cycle)
system.cpu.dtb_walker_cache.blockedCauses::no_mshrs            0                       # number of times access was blocked (Count)
system.cpu.dtb_walker_cache.blockedCauses::no_targets            0                       # number of times access was blocked (Count)
system.cpu.dtb_walker_cache.avgBlocked::no_mshrs          nan                       # average number of cycles each access was blocked ((Cycle/Count))
system.cpu.dtb_walker_cache.avgBlocked::no_targets          nan                       # average number of cycles each access was blocked ((Cycle/Count))
system.cpu.dtb_walker_cache.replacements            0                       # number of replacements (Count)
system.cpu.dtb_walker_cache.power_state.pwrStateResidencyTicks::UNDEFINED     54846610                       # Cumulative time (in ticks) in various power states (Tick)
system.cpu.dtb_walker_cache.tags.tagsInUse            0                       # Average ticks per tags in use ((Tick/Count))
system.cpu.dtb_walker_cache.tags.totalRefs            0                       # Total number of references to valid blocks. (Count)
system.cpu.dtb_walker_cache.tags.sampledRefs            0                       # Sample count of references to valid blocks. (Count)
system.cpu.dtb_walker_cache.tags.avgRefs          nan                       # Average number of references to valid blocks. ((Count/Count))
system.cpu.dtb_walker_cache.tags.warmupTick            0                       # The tick when the warmup percentage was hit. (Tick)
system.cpu.dtb_walker_cache.tags.tagAccesses            0                       # Number of tag accesses (Count)
system.cpu.dtb_walker_cache.tags.dataAccesses            0                       # Number of data accesses (Count)
system.cpu.dtb_walker_cache.tags.power_state.pwrStateResidencyTicks::UNDEFINED     54846610                       # Cumulative time (in ticks) in various power states (Tick)
system.cpu.fetch.icacheStallCycles              36241                       # Number of cycles fetch is stalled on an Icache miss (Cycle)
system.cpu.fetch.insts                          43410                       # Number of instructions fetch has processed (Count)
system.cpu.fetch.branches                        9591                       # Number of branches that fetch encountered (Count)
system.cpu.fetch.predictedBranches               3217                       # Number of branches that fetch has predicted taken (Count)
system.cpu.fetch.cycles                         33265                       # Number of cycles fetch has run and was not squashing or blocked (Cycle)
system.cpu.fetch.squashCycles                    2666                       # Number of cycles fetch has spent squashing (Cycle)
system.cpu.fetch.miscStallCycles                    3                       # Number of cycles fetch has spent waiting on interrupts, or bad addresses, or out of MSHRs (Cycle)
system.cpu.fetch.icacheWaitRetryStallCycles           27                       # Number of stall cycles due to full MSHR (Cycle)
system.cpu.fetch.cacheLines                      5995                       # Number of cache lines fetched (Count)
system.cpu.fetch.icacheSquashes                   728                       # Number of outstanding Icache misses that were squashed (Count)
system.cpu.fetch.nisnDist::samples              70869                       # Number of instructions fetched each cycle (Total) (Count)
system.cpu.fetch.nisnDist::mean              1.195911                       # Number of instructions fetched each cycle (Total) (Count)
system.cpu.fetch.nisnDist::stdev             2.688615                       # Number of instructions fetched each cycle (Total) (Count)
system.cpu.fetch.nisnDist::underflows               0      0.00%      0.00% # Number of instructions fetched each cycle (Total) (Count)
system.cpu.fetch.nisnDist::0                    57764     81.51%     81.51% # Number of instructions fetched each cycle (Total) (Count)
system.cpu.fetch.nisnDist::1                      569      0.80%     82.31% # Number of instructions fetched each cycle (Total) (Count)
system.cpu.fetch.nisnDist::2                      724      1.02%     83.33% # Number of instructions fetched each cycle (Total) (Count)
system.cpu.fetch.nisnDist::3                      674      0.95%     84.28% # Number of instructions fetched each cycle (Total) (Count)
system.cpu.fetch.nisnDist::4                      895      1.26%     85.55% # Number of instructions fetched each cycle (Total) (Count)
system.cpu.fetch.nisnDist::5                      751      1.06%     86.61% # Number of instructions fetched each cycle (Total) (Count)
system.cpu.fetch.nisnDist::6                      939      1.32%     87.93% # Number of instructions fetched each cycle (Total) (Count)
system.cpu.fetch.nisnDist::7                      679      0.96%     88.89% # Number of instructions fetched each cycle (Total) (Count)
system.cpu.fetch.nisnDist::8                     7874     11.11%    100.00% # Number of instructions fetched each cycle (Total) (Count)
system.cpu.fetch.nisnDist::overflows                0      0.00%    100.00% # Number of instructions fetched each cycle (Total) (Count)
system.cpu.fetch.nisnDist::min_value                0                       # Number of instructions fetched each cycle (Total) (Count)
system.cpu.fetch.nisnDist::max_value                8                       # Number of instructions fetched each cycle (Total) (Count)
system.cpu.fetch.nisnDist::total                70869                       # Number of instructions fetched each cycle (Total) (Count)
system.cpu.fetch.branchRate                  0.079565                       # Number of branch fetches per cycle (Ratio)
system.cpu.fetch.rate                        0.360120                       # Number of inst fetches per cycle ((Count/Cycle))
system.cpu.icache.demandHits::cpu.inst           4892                       # number of demand (read+write) hits (Count)
system.cpu.icache.demandHits::total              4892                       # number of demand (read+write) hits (Count)
system.cpu.icache.overallHits::cpu.inst          4892                       # number of overall hits (Count)
system.cpu.icache.overallHits::total             4892                       # number of overall hits (Count)
system.cpu.icache.demandMisses::cpu.inst         1103                       # number of demand (read+write) misses (Count)
system.cpu.icache.demandMisses::total            1103                       # number of demand (read+write) misses (Count)
system.cpu.icache.overallMisses::cpu.inst         1103                       # number of overall misses (Count)
system.cpu.icache.overallMisses::total           1103                       # number of overall misses (Count)
system.cpu.icache.demandMissLatency::cpu.inst     65808925                       # number of demand (read+write) miss ticks (Tick)
system.cpu.icache.demandMissLatency::total     65808925                       # number of demand (read+write) miss ticks (Tick)
system.cpu.icache.overallMissLatency::cpu.inst     65808925                       # number of overall miss ticks (Tick)
system.cpu.icache.overallMissLatency::total     65808925                       # number of overall miss ticks (Tick)
system.cpu.icache.demandAccesses::cpu.inst         5995                       # number of demand (read+write) accesses (Count)
system.cpu.icache.demandAccesses::total          5995                       # number of demand (read+write) accesses (Count)
system.cpu.icache.overallAccesses::cpu.inst         5995                       # number of overall (read+write) accesses (Count)
system.cpu.icache.overallAccesses::total         5995                       # number of overall (read+write) accesses (Count)
system.cpu.icache.demandMissRate::cpu.inst     0.183987                       # miss rate for demand accesses (Ratio)
system.cpu.icache.demandMissRate::total      0.183987                       # miss rate for demand accesses (Ratio)
system.cpu.icache.overallMissRate::cpu.inst     0.183987                       # miss rate for overall accesses (Ratio)
system.cpu.icache.overallMissRate::total     0.183987                       # miss rate for overall accesses (Ratio)
system.cpu.icache.demandAvgMissLatency::cpu.inst 59663.576609                       # average overall miss latency ((Cycle/Count))
system.cpu.icache.demandAvgMissLatency::total 59663.576609                       # average overall miss latency ((Cycle/Count))
system.cpu.icache.overallAvgMissLatency::cpu.inst 59663.576609                       # average overall miss latency ((Cycle/Count))
system.cpu.icache.overallAvgMissLatency::total 59663.576609                       # average overall miss latency ((Cycle/Count))
system.cpu.icache.blockedCycles::no_mshrs          322                       # number of cycles access was blocked (Cycle)
system.cpu.icache.blockedCycles::no_targets            0                       # number of cycles access was blocked (Cycle)
system.cpu.icache.blockedCauses::no_mshrs            7                       # number of times access was blocked (Count)
system.cpu.icache.blockedCauses::no_targets            0                       # number of times access was blocked (Count)
system.cpu.icache.avgBlocked::no_mshrs             46                       # average number of cycles each access was blocked ((Cycle/Count))
system.cpu.icache.avgBlocked::no_targets          nan                       # average number of cycles each access was blocked ((Cycle/Count))
system.cpu.icache.writebacks::writebacks          558                       # number of writebacks (Count)
system.cpu.icache.writebacks::total               558                       # number of writebacks (Count)
system.cpu.icache.demandMshrHits::cpu.inst          289                       # number of demand (read+write) MSHR hits (Count)
system.cpu.icache.demandMshrHits::total           289                       # number of demand (read+write) MSHR hits (Count)
system.cpu.icache.overallMshrHits::cpu.inst          289                       # number of overall MSHR hits (Count)
system.cpu.icache.overallMshrHits::total          289                       # number of overall MSHR hits (Count)
system.cpu.icache.demandMshrMisses::cpu.inst          814                       # number of demand (read+write) MSHR misses (Count)
system.cpu.icache.demandMshrMisses::total          814                       # number of demand (read+write) MSHR misses (Count)
system.cpu.icache.overallMshrMisses::cpu.inst          814                       # number of overall MSHR misses (Count)
system.cpu.icache.overallMshrMisses::total          814                       # number of overall MSHR misses (Count)
system.cpu.icache.demandMshrMissLatency::cpu.inst     51273150                       # number of demand (read+write) MSHR miss ticks (Tick)
system.cpu.icache.demandMshrMissLatency::total     51273150                       # number of demand (read+write) MSHR miss ticks (Tick)
system.cpu.icache.overallMshrMissLatency::cpu.inst     51273150                       # number of overall MSHR miss ticks (Tick)
system.cpu.icache.overallMshrMissLatency::total     51273150                       # number of overall MSHR miss ticks (Tick)
system.cpu.icache.demandMshrMissRate::cpu.inst     0.135780                       # mshr miss ratio for demand accesses (Ratio)
system.cpu.icache.demandMshrMissRate::total     0.135780                       # mshr miss ratio for demand accesses (Ratio)
system.cpu.icache.overallMshrMissRate::cpu.inst     0.135780                       # mshr miss ratio for overall accesses (Ratio)
system.cpu.icache.overallMshrMissRate::total     0.135780                       # mshr miss ratio for overall accesses (Ratio)
system.cpu.icache.demandAvgMshrMissLatency::cpu.inst 62989.127764                       # average overall mshr miss latency ((Cycle/Count))
system.cpu.icache.demandAvgMshrMissLatency::total 62989.127764                       # average overall mshr miss latency ((Cycle/Count))
system.cpu.icache.overallAvgMshrMissLatency::cpu.inst 62989.127764                       # average overall mshr miss latency ((Cycle/Count))
system.cpu.icache.overallAvgMshrMissLatency::total 62989.127764                       # average overall mshr miss latency ((Cycle/Count))
system.cpu.icache.replacements                    558                       # number of replacements (Count)
system.cpu.icache.ReadReq.hits::cpu.inst         4892                       # number of ReadReq hits (Count)
system.cpu.icache.ReadReq.hits::total            4892                       # number of ReadReq hits (Count)
system.cpu.icache.ReadReq.misses::cpu.inst         1103                       # number of ReadReq misses (Count)
system.cpu.icache.ReadReq.misses::total          1103                       # number of ReadReq misses (Count)
system.cpu.icache.ReadReq.missLatency::cpu.inst     65808925                       # number of ReadReq miss ticks (Tick)
system.cpu.icache.ReadReq.missLatency::total     65808925                       # number of ReadReq miss ticks (Tick)
system.cpu.icache.ReadReq.accesses::cpu.inst         5995                       # number of ReadReq accesses(hits+misses) (Count)
system.cpu.icache.ReadReq.accesses::total         5995                       # number of ReadReq accesses(hits+misses) (Count)
system.cpu.icache.ReadReq.missRate::cpu.inst     0.183987                       # miss rate for ReadReq accesses (Ratio)
system.cpu.icache.ReadReq.missRate::total     0.183987                       # miss rate for ReadReq accesses (Ratio)
system.cpu.icache.ReadReq.avgMissLatency::cpu.inst 59663.576609                       # average ReadReq miss latency ((Tick/Count))
system.cpu.icache.ReadReq.avgMissLatency::total 59663.576609                       # average ReadReq miss latency ((Tick/Count))
system.cpu.icache.ReadReq.mshrHits::cpu.inst          289                       # number of ReadReq MSHR hits (Count)
system.cpu.icache.ReadReq.mshrHits::total          289                       # number of ReadReq MSHR hits (Count)
system.cpu.icache.ReadReq.mshrMisses::cpu.inst          814                       # number of ReadReq MSHR misses (Count)
system.cpu.icache.ReadReq.mshrMisses::total          814                       # number of ReadReq MSHR misses (Count)
system.cpu.icache.ReadReq.mshrMissLatency::cpu.inst     51273150                       # number of ReadReq MSHR miss ticks (Tick)
system.cpu.icache.ReadReq.mshrMissLatency::total     51273150                       # number of ReadReq MSHR miss ticks (Tick)
system.cpu.icache.ReadReq.mshrMissRate::cpu.inst     0.135780                       # mshr miss rate for ReadReq accesses (Ratio)
system.cpu.icache.ReadReq.mshrMissRate::total     0.135780                       # mshr miss rate for ReadReq accesses (Ratio)
system.cpu.icache.ReadReq.avgMshrMissLatency::cpu.inst 62989.127764                       # average ReadReq mshr miss latency ((Tick/Count))
system.cpu.icache.ReadReq.avgMshrMissLatency::total 62989.127764                       # average ReadReq mshr miss latency ((Tick/Count))
system.cpu.icache.power_state.pwrStateResidencyTicks::UNDEFINED     54846610                       # Cumulative time (in ticks) in various power states (Tick)
system.cpu.icache.tags.tagsInUse           205.190370                       # Average ticks per tags in use ((Tick/Count))
system.cpu.icache.tags.totalRefs                 5706                       # Total number of references to valid blocks. (Count)
system.cpu.icache.tags.sampledRefs                814                       # Sample count of references to valid blocks. (Count)
system.cpu.icache.tags.avgRefs               7.009828                       # Average number of references to valid blocks. ((Count/Count))
system.cpu.icache.tags.warmupTick               77000                       # The tick when the warmup percentage was hit. (Tick)
system.cpu.icache.tags.occupancies::cpu.inst   205.190370                       # Average occupied blocks per tick, per requestor ((Count/Tick))
system.cpu.icache.tags.avgOccs::cpu.inst     0.801525                       # Average percentage of cache occupancy ((Ratio/Tick))
system.cpu.icache.tags.avgOccs::total        0.801525                       # Average percentage of cache occupancy ((Ratio/Tick))
system.cpu.icache.tags.occupanciesTaskId::1024          256                       # Occupied blocks per task id (Count)
system.cpu.icache.tags.ageTaskId_1024::0           80                       # Occupied blocks per task id, per block age (Count)
system.cpu.icache.tags.ageTaskId_1024::1          176                       # Occupied blocks per task id, per block age (Count)
system.cpu.icache.tags.ratioOccsTaskId::1024            1                       # Ratio of occupied blocks and all blocks, per task id (Ratio)
system.cpu.icache.tags.tagAccesses              12804                       # Number of tag accesses (Count)
system.cpu.icache.tags.dataAccesses             12804                       # Number of data accesses (Count)
system.cpu.icache.tags.power_state.pwrStateResidencyTicks::UNDEFINED     54846610                       # Cumulative time (in ticks) in various power states (Tick)
system.cpu.iew.idleCycles                           0                       # Number of cycles IEW is idle (Cycle)
system.cpu.iew.squashCycles                       989                       # Number of cycles IEW is squashing (Cycle)
system.cpu.iew.blockCycles                      10343                       # Number of cycles IEW is blocking (Cycle)
system.cpu.iew.unblockCycles                     2018                       # Number of cycles IEW is unblocking (Cycle)
system.cpu.iew.dispatchedInsts                  68180                       # Number of instructions dispatched to IQ (Count)
system.cpu.iew.dispSquashedInsts                  163                       # Number of squashed instructions skipped by dispatch (Count)
system.cpu.iew.dispLoadInsts                     7970                       # Number of dispatched load instructions (Count)
system.cpu.iew.dispStoreInsts                    4294                       # Number of dispatched store instructions (Count)
system.cpu.iew.dispNonSpecInsts                     1                       # Number of dispatched non-speculative instructions (Count)
system.cpu.iew.iqFullEvents                        88                       # Number of times the IQ has become full, causing a stall (Count)
system.cpu.iew.lsqFullEvents                     1879                       # Number of times the LSQ has become full, causing a stall (Count)
system.cpu.iew.memOrderViolationEvents             39                       # Number of memory order violations (Count)
system.cpu.iew.predictedTakenIncorrect            154                       # Number of branches that were predicted taken incorrectly (Count)
system.cpu.iew.predictedNotTakenIncorrect          944                       # Number of branches that were predicted not taken incorrectly (Count)
system.cpu.iew.branchMispredicts                 1098                       # Number of branch mispredicts detected at execute (Count)
system.cpu.iew.instsToCommit                    56012                       # Cumulative count of insts sent to commit (Count)
system.cpu.iew.writebackCount                   55545                       # Cumulative count of insts written-back (Count)
system.cpu.iew.producerInst                     39934                       # Number of instructions producing a value (Count)
system.cpu.iew.consumerInst                     66109                       # Number of instructions consuming a value (Count)
system.cpu.iew.wbRate                        0.460790                       # Insts written-back per cycle ((Count/Cycle))
system.cpu.iew.wbFanout                      0.604063                       # Average fanout of values written-back ((Count/Count))
system.cpu.interrupts.clk_domain.clock           7280                       # Clock period in ticks (Tick)
system.cpu.itb_walker_cache.blockedCycles::no_mshrs            0                       # number of cycles access was blocked (Cycle)
system.cpu.itb_walker_cache.blockedCycles::no_targets            0                       # number of cycles access was blocked (Cycle)
system.cpu.itb_walker_cache.blockedCauses::no_mshrs            0                       # number of times access was blocked (Count)
system.cpu.itb_walker_cache.blockedCauses::no_targets            0                       # number of times access was blocked (Count)
system.cpu.itb_walker_cache.avgBlocked::no_mshrs          nan                       # average number of cycles each access was blocked ((Cycle/Count))
system.cpu.itb_walker_cache.avgBlocked::no_targets          nan                       # average number of cycles each access was blocked ((Cycle/Count))
system.cpu.itb_walker_cache.replacements            0                       # number of replacements (Count)
system.cpu.itb_walker_cache.power_state.pwrStateResidencyTicks::UNDEFINED     54846610                       # Cumulative time (in ticks) in various power states (Tick)
system.cpu.itb_walker_cache.tags.tagsInUse            0                       # Average ticks per tags in use ((Tick/Count))
system.cpu.itb_walker_cache.tags.totalRefs            0                       # Total number of references to valid blocks. (Count)
system.cpu.itb_walker_cache.tags.sampledRefs            0                       # Sample count of references to valid blocks. (Count)
system.cpu.itb_walker_cache.tags.avgRefs          nan                       # Average number of references to valid blocks. ((Count/Count))
system.cpu.itb_walker_cache.tags.warmupTick            0                       # The tick when the warmup percentage was hit. (Tick)
system.cpu.itb_walker_cache.tags.tagAccesses            0                       # Number of tag accesses (Count)
system.cpu.itb_walker_cache.tags.dataAccesses            0                       # Number of data accesses (Count)
system.cpu.itb_walker_cache.tags.power_state.pwrStateResidencyTicks::UNDEFINED     54846610                       # Cumulative time (in ticks) in various power states (Tick)
system.cpu.lsq0.forwLoads                         384                       # Number of loads that had data forwarded from stores (Count)
system.cpu.lsq0.squashedLoads                    4028                       # Number of loads squashed (Count)
system.cpu.lsq0.ignoredResponses                    4                       # Number of memory responses ignored because the instruction is squashed (Count)
system.cpu.lsq0.memOrderViolation                  39                       # Number of memory ordering violations (Count)
system.cpu.lsq0.squashedStores                   1634                       # Number of stores squashed (Count)
system.cpu.lsq0.rescheduledLoads                    1                       # Number of loads that were rescheduled (Count)
system.cpu.lsq0.blockedByCache                     18                       # Number of times an access to memory failed due to the cache being blocked (Count)
system.cpu.lsq0.loadToUse::samples               3942                       # Distribution of cycle latency between the first time a load is issued and its completion (Unspecified)
system.cpu.lsq0.loadToUse::mean             17.755961                       # Distribution of cycle latency between the first time a load is issued and its completion (Unspecified)
system.cpu.lsq0.loadToUse::stdev            47.873213                       # Distribution of cycle latency between the first time a load is issued and its completion (Unspecified)
system.cpu.lsq0.loadToUse::0-9                   3494     88.64%     88.64% # Distribution of cycle latency between the first time a load is issued and its completion (Unspecified)
system.cpu.lsq0.loadToUse::10-19                   26      0.66%     89.29% # Distribution of cycle latency between the first time a load is issued and its completion (Unspecified)
system.cpu.lsq0.loadToUse::20-29                   15      0.38%     89.68% # Distribution of cycle latency between the first time a load is issued and its completion (Unspecified)
system.cpu.lsq0.loadToUse::30-39                    3      0.08%     89.75% # Distribution of cycle latency between the first time a load is issued and its completion (Unspecified)
system.cpu.lsq0.loadToUse::40-49                    4      0.10%     89.85% # Distribution of cycle latency between the first time a load is issued and its completion (Unspecified)
system.cpu.lsq0.loadToUse::50-59                   13      0.33%     90.18% # Distribution of cycle latency between the first time a load is issued and its completion (Unspecified)
system.cpu.lsq0.loadToUse::60-69                    8      0.20%     90.39% # Distribution of cycle latency between the first time a load is issued and its completion (Unspecified)
system.cpu.lsq0.loadToUse::70-79                    7      0.18%     90.56% # Distribution of cycle latency between the first time a load is issued and its completion (Unspecified)
system.cpu.lsq0.loadToUse::80-89                    7      0.18%     90.74% # Distribution of cycle latency between the first time a load is issued and its completion (Unspecified)
system.cpu.lsq0.loadToUse::90-99                    7      0.18%     90.92% # Distribution of cycle latency between the first time a load is issued and its completion (Unspecified)
system.cpu.lsq0.loadToUse::100-109                 14      0.36%     91.27% # Distribution of cycle latency between the first time a load is issued and its completion (Unspecified)
system.cpu.lsq0.loadToUse::110-119                 74      1.88%     93.15% # Distribution of cycle latency between the first time a load is issued and its completion (Unspecified)
[...]
system.mem_ctrls.dram.bwWrite::total        171532935                       # Write bandwidth from this memory ((Byte/Second))
system.mem_ctrls.dram.bwTotal::writebacks    171532935                       # Total bandwidth to/from this memory ((Byte/Second))
system.mem_ctrls.dram.bwTotal::cpu.inst     949849043                       # Total bandwidth to/from this memory ((Byte/Second))
system.mem_ctrls.dram.bwTotal::cpu.data     665127708                       # Total bandwidth to/from this memory ((Byte/Second))
system.mem_ctrls.dram.bwTotal::total       1786509686                       # Total bandwidth to/from this memory ((Byte/Second))
system.mem_ctrls.dram.readBursts                 1345                       # Number of DRAM read bursts (Count)
system.mem_ctrls.dram.writeBursts                 682                       # Number of DRAM write bursts (Count)
system.mem_ctrls.dram.perBankRdBursts::0          105                       # Per bank write bursts (Count)
system.mem_ctrls.dram.perBankRdBursts::1           62                       # Per bank write bursts (Count)
system.mem_ctrls.dram.perBankRdBursts::2           55                       # Per bank write bursts (Count)
system.mem_ctrls.dram.perBankRdBursts::3           36                       # Per bank write bursts (Count)
system.mem_ctrls.dram.perBankRdBursts::4           95                       # Per bank write bursts (Count)
system.mem_ctrls.dram.perBankRdBursts::5          108                       # Per bank write bursts (Count)
system.mem_ctrls.dram.perBankRdBursts::6           57                       # Per bank write bursts (Count)
system.mem_ctrls.dram.perBankRdBursts::7           81                       # Per bank write bursts (Count)
system.mem_ctrls.dram.perBankRdBursts::8           27                       # Per bank write bursts (Count)
system.mem_ctrls.dram.perBankRdBursts::9           45                       # Per bank write bursts (Count)
system.mem_ctrls.dram.perBankRdBursts::10           94                       # Per bank write bursts (Count)
system.mem_ctrls.dram.perBankRdBursts::11           93                       # Per bank write bursts (Count)
system.mem_ctrls.dram.perBankRdBursts::12          143                       # Per bank write bursts (Count)
system.mem_ctrls.dram.perBankRdBursts::13          127                       # Per bank write bursts (Count)
system.mem_ctrls.dram.perBankRdBursts::14           76                       # Per bank write bursts (Count)
system.mem_ctrls.dram.perBankRdBursts::15          141                       # Per bank write bursts (Count)
system.mem_ctrls.dram.perBankWrBursts::0           24                       # Per bank write bursts (Count)
system.mem_ctrls.dram.perBankWrBursts::1           39                       # Per bank write bursts (Count)
system.mem_ctrls.dram.perBankWrBursts::2           25                       # Per bank write bursts (Count)
system.mem_ctrls.dram.perBankWrBursts::3           15                       # Per bank write bursts (Count)
system.mem_ctrls.dram.perBankWrBursts::4           27                       # Per bank write bursts (Count)
system.mem_ctrls.dram.perBankWrBursts::5           40                       # Per bank write bursts (Count)
system.mem_ctrls.dram.perBankWrBursts::6           31                       # Per bank write bursts (Count)
system.mem_ctrls.dram.perBankWrBursts::7           47                       # Per bank write bursts (Count)
system.mem_ctrls.dram.perBankWrBursts::8           18                       # Per bank write bursts (Count)
system.mem_ctrls.dram.perBankWrBursts::9           33                       # Per bank write bursts (Count)
system.mem_ctrls.dram.perBankWrBursts::10           47                       # Per bank write bursts (Count)
system.mem_ctrls.dram.perBankWrBursts::11           72                       # Per bank write bursts (Count)
system.mem_ctrls.dram.perBankWrBursts::12          109                       # Per bank write bursts (Count)
system.mem_ctrls.dram.perBankWrBursts::13           52                       # Per bank write bursts (Count)
system.mem_ctrls.dram.perBankWrBursts::14           46                       # Per bank write bursts (Count)
system.mem_ctrls.dram.perBankWrBursts::15           57                       # Per bank write bursts (Count)
system.mem_ctrls.dram.totQLat                16842140                       # Total ticks spent queuing (Tick)
system.mem_ctrls.dram.totBusLat               6725000                       # Total ticks spent in databus transfers (Tick)
system.mem_ctrls.dram.totMemAccLat           42060890                       # Total ticks spent from burst creation until serviced by the DRAM (Tick)
system.mem_ctrls.dram.avgQLat                12522.04                       # Average queueing delay per DRAM burst ((Tick/Count))
system.mem_ctrls.dram.avgBusLat               5000.00                       # Average bus latency per DRAM burst ((Tick/Count))
system.mem_ctrls.dram.avgMemAccLat           31272.04                       # Average memory access latency per DRAM burst ((Tick/Count))
system.mem_ctrls.dram.readRowHits                1094                       # Number of row buffer hits during reads (Count)
system.mem_ctrls.dram.writeRowHits                582                       # Number of row buffer hits during writes (Count)
system.mem_ctrls.dram.readRowHitRate            81.34                       # Row buffer hit rate for reads (Ratio)
system.mem_ctrls.dram.writeRowHitRate           85.34                       # Row buffer hit rate for writes (Ratio)
system.mem_ctrls.dram.bytesPerActivate::samples          349                       # Bytes accessed per row activation (Byte)
system.mem_ctrls.dram.bytesPerActivate::mean   370.613181                       # Bytes accessed per row activation (Byte)
system.mem_ctrls.dram.bytesPerActivate::gmean   235.214251                       # Bytes accessed per row activation (Byte)
system.mem_ctrls.dram.bytesPerActivate::stdev   339.068301                       # Bytes accessed per row activation (Byte)
system.mem_ctrls.dram.bytesPerActivate::0-127           84     24.07%     24.07% # Bytes accessed per row activation (Byte)
system.mem_ctrls.dram.bytesPerActivate::128-255           96     27.51%     51.58% # Bytes accessed per row activation (Byte)
system.mem_ctrls.dram.bytesPerActivate::256-383           41     11.75%     63.32% # Bytes accessed per row activation (Byte)
system.mem_ctrls.dram.bytesPerActivate::384-511           29      8.31%     71.63% # Bytes accessed per row activation (Byte)
system.mem_ctrls.dram.bytesPerActivate::512-639           17      4.87%     76.50% # Bytes accessed per row activation (Byte)
system.mem_ctrls.dram.bytesPerActivate::640-767           12      3.44%     79.94% # Bytes accessed per row activation (Byte)
system.mem_ctrls.dram.bytesPerActivate::768-895           11      3.15%     83.09% # Bytes accessed per row activation (Byte)
system.mem_ctrls.dram.bytesPerActivate::896-1023           12      3.44%     86.53% # Bytes accessed per row activation (Byte)
system.mem_ctrls.dram.bytesPerActivate::1024-1151           47     13.47%    100.00% # Bytes accessed per row activation (Byte)
system.mem_ctrls.dram.bytesPerActivate::total          349                       # Bytes accessed per row activation (Byte)
system.mem_ctrls.dram.bytesRead                 86080                       # Total bytes read (Byte)
system.mem_ctrls.dram.bytesWritten              43648                       # Total bytes written (Byte)
system.mem_ctrls.dram.avgRdBW             1569.468013                       # Average DRAM read bandwidth in MiBytes/s ((Byte/Second))
system.mem_ctrls.dram.avgWrBW              795.819468                       # Average DRAM write bandwidth in MiBytes/s ((Byte/Second))
system.mem_ctrls.dram.peakBW                 12800.00                       # Theoretical peak bandwidth in MiByte/s ((Byte/Second))
system.mem_ctrls.dram.busUtil                   18.48                       # Data bus utilization in percentage (Ratio)
system.mem_ctrls.dram.busUtilRead               12.26                       # Data bus utilization in percentage for reads (Ratio)
system.mem_ctrls.dram.busUtilWrite               6.22                       # Data bus utilization in percentage for writes (Ratio)
system.mem_ctrls.dram.pageHitRate               82.68                       # Row buffer hit rate, read and write combined (Ratio)
system.mem_ctrls.dram.power_state.pwrStateResidencyTicks::UNDEFINED     54846610                       # Cumulative time (in ticks) in various power states (Tick)
system.mem_ctrls.dram.rank0.actEnergy         1028160                       # Energy for activate commands per rank (pJ) (Joule)
system.mem_ctrls.dram.rank0.preEnergy          542685                       # Energy for precharge commands per rank (pJ) (Joule)
system.mem_ctrls.dram.rank0.readEnergy        4276860                       # Energy for read commands per rank (pJ) (Joule)
system.mem_ctrls.dram.rank0.writeEnergy       1284120                       # Energy for write commands per rank (pJ) (Joule)
system.mem_ctrls.dram.rank0.refreshEnergy 4302480.000000                       # Energy for refresh commands per rank (pJ) (Joule)
system.mem_ctrls.dram.rank0.actBackEnergy     24020370                       # Energy for active background per rank (pJ) (Joule)
system.mem_ctrls.dram.rank0.preBackEnergy       833760                       # Energy for precharge background per rank (pJ) (Joule)
system.mem_ctrls.dram.rank0.actPowerDownEnergy            0                       # Energy for active power-down per rank (pJ) (Joule)
system.mem_ctrls.dram.rank0.prePowerDownEnergy            0                       # Energy for precharge power-down per rank (pJ) (Joule)
system.mem_ctrls.dram.rank0.selfRefreshEnergy            0                       # Energy for self refresh per rank (pJ) (Joule)
system.mem_ctrls.dram.rank0.totalEnergy      36288435                       # Total energy per rank (pJ) (Joule)
system.mem_ctrls.dram.rank0.averagePower   661.634967                       # Core power per rank (mW) (Watt)
system.mem_ctrls.dram.rank0.totalIdleTime            0                       # Total Idle time Per DRAM Rank (Tick)
system.mem_ctrls.dram.rank0.pwrStateTime::IDLE      1935860                       # Time in different power states (Tick)
system.mem_ctrls.dram.rank0.pwrStateTime::REF      1820000                       # Time in different power states (Tick)
system.mem_ctrls.dram.rank0.pwrStateTime::SREF            0                       # Time in different power states (Tick)
system.mem_ctrls.dram.rank0.pwrStateTime::PRE_PDN            0                       # Time in different power states (Tick)
system.mem_ctrls.dram.rank0.pwrStateTime::ACT     51090750                       # Time in different power states (Tick)
system.mem_ctrls.dram.rank0.pwrStateTime::ACT_PDN            0                       # Time in different power states (Tick)
system.mem_ctrls.dram.rank1.actEnergy         1477980                       # Energy for activate commands per rank (pJ) (Joule)
system.mem_ctrls.dram.rank1.preEnergy          770385                       # Energy for precharge commands per rank (pJ) (Joule)
system.mem_ctrls.dram.rank1.readEnergy        5326440                       # Energy for read commands per rank (pJ) (Joule)
system.mem_ctrls.dram.rank1.writeEnergy       2249820                       # Energy for write commands per rank (pJ) (Joule)
system.mem_ctrls.dram.rank1.refreshEnergy 4302480.000000                       # Energy for refresh commands per rank (pJ) (Joule)
system.mem_ctrls.dram.rank1.actBackEnergy     24757950                       # Energy for active background per rank (pJ) (Joule)
system.mem_ctrls.dram.rank1.preBackEnergy       212640                       # Energy for precharge background per rank (pJ) (Joule)
system.mem_ctrls.dram.rank1.actPowerDownEnergy            0                       # Energy for active power-down per rank (pJ) (Joule)
system.mem_ctrls.dram.rank1.prePowerDownEnergy            0                       # Energy for precharge power-down per rank (pJ) (Joule)
system.mem_ctrls.dram.rank1.selfRefreshEnergy            0                       # Energy for self refresh per rank (pJ) (Joule)
system.mem_ctrls.dram.rank1.totalEnergy      39097695                       # Total energy per rank (pJ) (Joule)
system.mem_ctrls.dram.rank1.averagePower   712.855270                       # Core power per rank (mW) (Watt)
system.mem_ctrls.dram.rank1.totalIdleTime            0                       # Total Idle time Per DRAM Rank (Tick)
system.mem_ctrls.dram.rank1.pwrStateTime::IDLE       360800                       # Time in different power states (Tick)
system.mem_ctrls.dram.rank1.pwrStateTime::REF      1820000                       # Time in different power states (Tick)
system.mem_ctrls.dram.rank1.pwrStateTime::SREF            0                       # Time in different power states (Tick)
system.mem_ctrls.dram.rank1.pwrStateTime::PRE_PDN            0                       # Time in different power states (Tick)
system.mem_ctrls.dram.rank1.pwrStateTime::ACT     52665810                       # Time in different power states (Tick)
system.mem_ctrls.dram.rank1.pwrStateTime::ACT_PDN            0                       # Time in different power states (Tick)
system.mem_ctrls.power_state.pwrStateResidencyTicks::UNDEFINED     54846610                       # Cumulative time (in ticks) in various power states (Tick)
system.membus.transDist::ReadResp                1146                       # Transaction distribution (Count)
system.membus.transDist::WritebackDirty           147                       # Transaction distribution (Count)
system.membus.transDist::WritebackClean           558                       # Transaction distribution (Count)
system.membus.transDist::CleanEvict               177                       # Transaction distribution (Count)
system.membus.transDist::ReadExReq                238                       # Transaction distribution (Count)
system.membus.transDist::ReadExResp               238                       # Transaction distribution (Count)
system.membus.transDist::ReadCleanReq             814                       # Transaction distribution (Count)
system.membus.transDist::ReadSharedReq            332                       # Transaction distribution (Count)
system.membus.pktCount_system.cpu.icache.mem_side_port::system.mem_ctrls.port         2186                       # Packet count per connected requestor and responder (Count)
system.membus.pktCount_system.cpu.icache.mem_side_port::total         2186                       # Packet count per connected requestor and responder (Count)
system.membus.pktCount_system.cpu.dcache.mem_side_port::system.mem_ctrls.port         1464                       # Packet count per connected requestor and responder (Count)
system.membus.pktCount_system.cpu.dcache.mem_side_port::total         1464                       # Packet count per connected requestor and responder (Count)
system.membus.pktCount::total                    3650                       # Packet count per connected requestor and responder (Count)
system.membus.pktSize_system.cpu.icache.mem_side_port::system.mem_ctrls.port        87808                       # Cumulative packet size per connected requestor and responder (Byte)
system.membus.pktSize_system.cpu.icache.mem_side_port::total        87808                       # Cumulative packet size per connected requestor and responder (Byte)
system.membus.pktSize_system.cpu.dcache.mem_side_port::system.mem_ctrls.port        45888                       # Cumulative packet size per connected requestor and responder (Byte)
system.membus.pktSize_system.cpu.dcache.mem_side_port::total        45888                       # Cumulative packet size per connected requestor and responder (Byte)
system.membus.pktSize::total                   133696                       # Cumulative packet size per connected requestor and responder (Byte)
system.membus.snoops                                0                       # Total snoops (Count)
system.membus.snoopTraffic                          0                       # Total snoop traffic (Byte)
system.membus.snoopFanout::samples               1384                       # Request fanout histogram (Count)
system.membus.snoopFanout::mean              0.002168                       # Request fanout histogram (Count)
system.membus.snoopFanout::stdev             0.046524                       # Request fanout histogram (Count)
system.membus.snoopFanout::underflows               0      0.00%      0.00% # Request fanout histogram (Count)
system.membus.snoopFanout::0                     1381     99.78%     99.78% # Request fanout histogram (Count)
system.membus.snoopFanout::1                        3      0.22%    100.00% # Request fanout histogram (Count)
system.membus.snoopFanout::2                        0      0.00%    100.00% # Request fanout histogram (Count)
system.membus.snoopFanout::3                        0      0.00%    100.00% # Request fanout histogram (Count)
system.membus.snoopFanout::4                        0      0.00%    100.00% # Request fanout histogram (Count)
system.membus.snoopFanout::overflows                0      0.00%    100.00% # Request fanout histogram (Count)
system.membus.snoopFanout::min_value                0                       # Request fanout histogram (Count)
system.membus.snoopFanout::max_value                1                       # Request fanout histogram (Count)
system.membus.snoopFanout::total                 1384                       # Request fanout histogram (Count)
system.membus.power_state.pwrStateResidencyTicks::UNDEFINED     54846610                       # Cumulative time (in ticks) in various power states (Tick)
system.membus.reqLayer2.occupancy             6088295                       # Layer occupancy (ticks) (Tick)
system.membus.reqLayer2.utilization               0.1                       # Layer utilization (Ratio)
system.membus.respLayer1.occupancy            4327335                       # Layer occupancy (ticks) (Tick)
system.membus.respLayer1.utilization              0.1                       # Layer utilization (Ratio)
system.membus.respLayer2.occupancy            3043145                       # Layer occupancy (ticks) (Tick)
system.membus.respLayer2.utilization              0.1                       # Layer utilization (Ratio)
system.membus.snoop_filter.totRequests           2266                       # Total number of requests made to the snoop filter. (Count)
system.membus.snoop_filter.hitSingleRequests          882                       # Number of requests hitting in the snoop filter with a single holder of the requested data. (Count)
system.membus.snoop_filter.hitMultiRequests            3                       # Number of requests hitting in the snoop filter with multiple (>1) holders of the requested data. (Count)
system.membus.snoop_filter.totSnoops                0                       # Total number of snoops made to the snoop filter. (Count)
system.membus.snoop_filter.hitSingleSnoops            0                       # Number of snoops hitting in the snoop filter with a single holder of the requested data. (Count)
system.membus.snoop_filter.hitMultiSnoops            0                       # Number of snoops hitting in the snoop filter with multiple (>1) holders of the requested data. (Count)
system.voltage_domain.voltage                       1                       # Voltage in Volts (Volt)
system.workload.inst.arm                            0                       # number of arm instructions executed (Count)
system.workload.inst.quiesce                        0                       # number of quiesce instructions executed (Count)

---------- End Simulation Statistics   ----------
