
---------- Begin Simulation Statistics ----------
simSeconds                                   0.000064                       # Number of seconds simulated (Second)
simTicks                                     64306000                       # Number of ticks simulated (Tick)
finalTick                                    64306000                       # Number of ticks from beginning of simulation (restored from checkpoints and never reset) (Tick)
simFreq                                  1000000000000                       # The number of ticks per simulated second ((Tick/Second))
hostSeconds                                      0.24                       # Real time elapsed on the host (Second)
hostTickRate                                267468035                       # The number of ticks simulated per host second (ticks/s) ((Tick/Second))
hostMemory                                     672724                       # Number of bytes of host memory used (Byte)
simInsts                                        17982                       # Number of instructions simulated (Count)
simOps                                          36243                       # Number of ops (including micro ops) simulated (Count)
hostInstRate                                    74736                       # Simulator instruction rate (inst/s) ((Count/Second))
hostOpRate                                     150626                       # Simulator op (including micro ops) rate (op/s) ((Count/Second))
system.clk_domain.clock                          1000                       # Clock period in ticks (Tick)
system.cpu.numCycles                            64307                       # Number of cpu cycles simulated (Cycle)
system.cpu.numWorkItemsStarted                      0                       # Number of work items this cpu started (Count)
system.cpu.numWorkItemsCompleted                    0                       # Number of work items this cpu completed (Count)
system.cpu.instsAdded                           67949                       # Number of instructions added to the IQ (excludes non-spec) (Count)
system.cpu.nonSpecInstsAdded                        1                       # Number of non-speculative instructions added to the IQ (Count)
system.cpu.instsIssued                          58337                       # Number of instructions issued (Count)
system.cpu.squashedInstsIssued                    166                       # Number of squashed instructions issued (Count)
system.cpu.squashedInstsExamined                31701                       # Number of squashed instructions iterated over during squash; mainly for profiling (Count)
system.cpu.squashedOperandsExamined             42516                       # Number of squashed operands that are examined and possibly removed from graph (Count)
system.cpu.squashedNonSpecRemoved                   1                       # Number of squashed non-spec instructions that were removed (Count)
system.cpu.numIssuedDist::samples               48751                       # Number of insts issued each cycle (Count)
system.cpu.numIssuedDist::mean               1.196632                       # Number of insts issued each cycle (Count)
system.cpu.numIssuedDist::stdev              2.039171                       # Number of insts issued each cycle (Count)
system.cpu.numIssuedDist::underflows                0      0.00%      0.00% # Number of insts issued each cycle (Count)
system.cpu.numIssuedDist::0                     32112     65.87%     65.87% # Number of insts issued each cycle (Count)
system.cpu.numIssuedDist::1                      3546      7.27%     73.14% # Number of insts issued each cycle (Count)
system.cpu.numIssuedDist::2                      2834      5.81%     78.96% # Number of insts issued each cycle (Count)
system.cpu.numIssuedDist::3                      2553      5.24%     84.19% # Number of insts issued each cycle (Count)
system.cpu.numIssuedDist::4                      2319      4.76%     88.95% # Number of insts issued each cycle (Count)
system.cpu.numIssuedDist::5                      2098      4.30%     93.25% # Number of insts issued each cycle (Count)
system.cpu.numIssuedDist::6                      1911      3.92%     97.17% # Number of insts issued each cycle (Count)
system.cpu.numIssuedDist::7                       792      1.62%     98.80% # Number of insts issued each cycle (Count)
system.cpu.numIssuedDist::8                       586      1.20%    100.00% # Number of insts issued each cycle (Count)
system.cpu.numIssuedDist::overflows                 0      0.00%    100.00% # Number of insts issued each cycle (Count)
system.cpu.numIssuedDist::min_value                 0                       # Number of insts issued each cycle (Count)
system.cpu.numIssuedDist::max_value                 8                       # Number of insts issued each cycle (Count)
system.cpu.numIssuedDist::total                 48751                       # Number of insts issued each cycle (Count)
system.cpu.statFuBusy::No_OpClass                   0      0.00%      0.00% # attempts to use FU when none available (Count)
system.cpu.statFuBusy::IntAlu                     657     84.45%     84.45% # attempts to use FU when none available (Count)
system.cpu.statFuBusy::IntMult                      0      0.00%     84.45% # attempts to use FU when none available (Count)
system.cpu.statFuBusy::IntDiv                       0      0.00%     84.45% # attempts to use FU when none available (Count)
system.cpu.statFuBusy::FloatAdd                     0      0.00%     84.45% # attempts to use FU when none available (Count)
system.cpu.statFuBusy::FloatCmp                     0      0.00%     84.45% # attempts to use FU when none available (Count)
system.cpu.statFuBusy::FloatCvt                     0      0.00%     84.45% # attempts to use FU when none available (Count)
system.cpu.statFuBusy::FloatMult                    0      0.00%     84.45% # attempts to use FU when none available (Count)
system.cpu.statFuBusy::FloatMultAcc                 0      0.00%     84.45% # attempts to use FU when none available (Count)
system.cpu.statFuBusy::FloatDiv                     0      0.00%     84.45% # attempts to use FU when none available (Count)
system.cpu.statFuBusy::FloatMisc                    0      0.00%     84.45% # attempts to use FU when none available (Count)
system.cpu.statFuBusy::FloatSqrt                    0      0.00%     84.45% # attempts to use FU when none available (Count)
system.cpu.statFuBusy::SimdAdd                      0      0.00%     84.45% # attempts to use FU when none available (Count)
system.cpu.statFuBusy::SimdAddAcc                   0      0.00%     84.45% # attempts to use FU when none available (Count)
system.cpu.statFuBusy::SimdAlu                     15      1.93%     86.38% # attempts to use FU when none available (Count)
system.cpu.statFuBusy::SimdCmp                      0      0.00%     86.38% # attempts to use FU when none available (Count)
system.cpu.statFuBusy::SimdCvt                      0      0.00%     86.38% # attempts to use FU when none available (Count)
system.cpu.statFuBusy::SimdMisc                     1      0.13%     86.50% # attempts to use FU when none available (Count)
system.cpu.statFuBusy::SimdMult                     0      0.00%     86.50% # attempts to use FU when none available (Count)
system.cpu.statFuBusy::SimdMultAcc                  0      0.00%     86.50% # attempts to use FU when none available (Count)
system.cpu.statFuBusy::SimdShift                    0      0.00%     86.50% # attempts to use FU when none available (Count)
system.cpu.statFuBusy::SimdShiftAcc                 0      0.00%     86.50% # attempts to use FU when none available (Count)
system.cpu.statFuBusy::SimdDiv                      0      0.00%     86.50% # attempts to use FU when none available (Count)
system.cpu.statFuBusy::SimdSqrt                     0      0.00%     86.50% # attempts to use FU when none available (Count)
system.cpu.statFuBusy::SimdFloatAdd                 0      0.00%     86.50% # attempts to use FU when none available (Count)
system.cpu.statFuBusy::SimdFloatAlu                 0      0.00%     86.50% # attempts to use FU when none available (Count)
system.cpu.statFuBusy::SimdFloatCmp                 0      0.00%     86.50% # attempts to use FU when none available (Count)
system.cpu.statFuBusy::SimdFloatCvt                 0      0.00%     86.50% # attempts to use FU when none available (Count)
system.cpu.statFuBusy::SimdFloatDiv                 0      0.00%     86.50% # attempts to use FU when none available (Count)
system.cpu.statFuBusy::SimdFloatMisc                0      0.00%     86.50% # attempts to use FU when none available (Count)
system.cpu.statFuBusy::SimdFloatMult                0      0.00%     86.50% # attempts to use FU when none available (Count)
system.cpu.statFuBusy::SimdFloatMultAcc             0      0.00%     86.50% # attempts to use FU when none available (Count)
system.cpu.statFuBusy::SimdFloatSqrt                0      0.00%     86.50% # attempts to use FU when none available (Count)
system.cpu.statFuBusy::SimdReduceAdd                0      0.00%     86.50% # attempts to use FU when none available (Count)
system.cpu.statFuBusy::SimdReduceAlu                0      0.00%     86.50% # attempts to use FU when none available (Count)
system.cpu.statFuBusy::SimdReduceCmp                0      0.00%     86.50% # attempts to use FU when none available (Count)
system.cpu.statFuBusy::SimdFloatReduceAdd            0      0.00%     86.50% # attempts to use FU when none available (Count)
system.cpu.statFuBusy::SimdFloatReduceCmp            0      0.00%     86.50% # attempts to use FU when none available (Count)
system.cpu.statFuBusy::SimdAes                      0      0.00%     86.50% # attempts to use FU when none available (Count)
system.cpu.statFuBusy::SimdAesMix                   0      0.00%     86.50% # attempts to use FU when none available (Count)
system.cpu.statFuBusy::SimdSha1Hash                 0      0.00%     86.50% # attempts to use FU when none available (Count)
system.cpu.statFuBusy::SimdSha1Hash2                0      0.00%     86.50% # attempts to use FU when none available (Count)
system.cpu.statFuBusy::SimdSha256Hash               0      0.00%     86.50% # attempts to use FU when none available (Count)
system.cpu.statFuBusy::SimdSha256Hash2              0      0.00%     86.50% # attempts to use FU when none available (Count)
system.cpu.statFuBusy::SimdShaSigma2                0      0.00%     86.50% # attempts to use FU when none available (Count)
system.cpu.statFuBusy::SimdShaSigma3                0      0.00%     86.50% # attempts to use FU when none available (Count)
system.cpu.statFuBusy::SimdPredAlu                  0      0.00%     86.50% # attempts to use FU when none available (Count)
system.cpu.statFuBusy::MemRead                     53      6.81%     93.32% # attempts to use FU when none available (Count)
system.cpu.statFuBusy::MemWrite                    25      3.21%     96.53% # attempts to use FU when none available (Count)
system.cpu.statFuBusy::FloatMemRead                11      1.41%     97.94% # attempts to use FU when none available (Count)
system.cpu.statFuBusy::FloatMemWrite               16      2.06%    100.00% # attempts to use FU when none available (Count)
system.cpu.statFuBusy::IprAccess                    0      0.00%    100.00% # attempts to use FU when none available (Count)
system.cpu.statFuBusy::InstPrefetch                 0      0.00%    100.00% # attempts to use FU when none available (Count)
system.cpu.statIssuedInstType_0::No_OpClass          845      1.45%      1.45% # Number of instructions issued per FU type, per thread (Count)
system.cpu.statIssuedInstType_0::IntAlu         44695     76.62%     78.06% # Number of instructions issued per FU type, per thread (Count)
system.cpu.statIssuedInstType_0::IntMult           20      0.03%     78.10% # Number of instructions issued per FU type, per thread (Count)
system.cpu.statIssuedInstType_0::IntDiv            90      0.15%     78.25% # Number of instructions issued per FU type, per thread (Count)
system.cpu.statIssuedInstType_0::FloatAdd          147      0.25%     78.50% # Number of instructions issued per FU type, per thread (Count)
system.cpu.statIssuedInstType_0::FloatCmp            0      0.00%     78.50% # Number of instructions issued per FU type, per thread (Count)
system.cpu.statIssuedInstType_0::FloatCvt            0      0.00%     78.50% # Number of instructions issued per FU type, per thread (Count)
system.cpu.statIssuedInstType_0::FloatMult            0      0.00%     78.50% # Number of instructions issued per FU type, per thread (Count)
system.cpu.statIssuedInstType_0::FloatMultAcc            0      0.00%     78.50% # Number of instructions issued per FU type, per thread (Count)
system.cpu.statIssuedInstType_0::FloatDiv            0      0.00%     78.50% # Number of instructions issued per FU type, per thread (Count)
system.cpu.statIssuedInstType_0::FloatMisc            0      0.00%     78.50% # Number of instructions issued per FU type, per thread (Count)
system.cpu.statIssuedInstType_0::FloatSqrt            0      0.00%     78.50% # Number of instructions issued per FU type, per thread (Count)
system.cpu.statIssuedInstType_0::SimdAdd          148      0.25%     78.76% # Number of instructions issued per FU type, per thread (Count)
system.cpu.statIssuedInstType_0::SimdAddAcc            0      0.00%     78.76% # Number of instructions issued per FU type, per thread (Count)
system.cpu.statIssuedInstType_0::SimdAlu          542      0.93%     79.69% # Number of instructions issued per FU type, per thread (Count)
system.cpu.statIssuedInstType_0::SimdCmp            0      0.00%     79.69% # Number of instructions issued per FU type, per thread (Count)
system.cpu.statIssuedInstType_0::SimdCvt          461      0.79%     80.48% # Number of instructions issued per FU type, per thread (Count)
system.cpu.statIssuedInstType_0::SimdMisc          510      0.87%     81.35% # Number of instructions issued per FU type, per thread (Count)
system.cpu.statIssuedInstType_0::SimdMult            0      0.00%     81.35% # Number of instructions issued per FU type, per thread (Count)
system.cpu.statIssuedInstType_0::SimdMultAcc            0      0.00%     81.35% # Number of instructions issued per FU type, per thread (Count)
system.cpu.statIssuedInstType_0::SimdShift          112      0.19%     81.54% # Number of instructions issued per FU type, per thread (Count)
system.cpu.statIssuedInstType_0::SimdShiftAcc            0      0.00%     81.54% # Number of instructions issued per FU type, per thread (Count)
system.cpu.statIssuedInstType_0::SimdDiv            0      0.00%     81.54% # Number of instructions issued per FU type, per thread (Count)
system.cpu.statIssuedInstType_0::SimdSqrt            0      0.00%     81.54% # Number of instructions issued per FU type, per thread (Count)
system.cpu.statIssuedInstType_0::SimdFloatAdd            0      0.00%     81.54% # Number of instructions issued per FU type, per thread (Count)
system.cpu.statIssuedInstType_0::SimdFloatAlu            0      0.00%     81.54% # Number of instructions issued per FU type, per thread (Count)
system.cpu.statIssuedInstType_0::SimdFloatCmp            0      0.00%     81.54% # Number of instructions issued per FU type, per thread (Count)
system.cpu.statIssuedInstType_0::SimdFloatCvt            0      0.00%     81.54% # Number of instructions issued per FU type, per thread (Count)
system.cpu.statIssuedInstType_0::SimdFloatDiv            0      0.00%     81.54% # Number of instructions issued per FU type, per thread (Count)
system.cpu.statIssuedInstType_0::SimdFloatMisc            0      0.00%     81.54% # Number of instructions issued per FU type, per thread (Count)
system.cpu.statIssuedInstType_0::SimdFloatMult            0      0.00%     81.54% # Number of instructions issued per FU type, per thread (Count)
system.cpu.statIssuedInstType_0::SimdFloatMultAcc            0      0.00%     81.54% # Number of instructions issued per FU type, per thread (Count)
system.cpu.statIssuedInstType_0::SimdFloatSqrt            0      0.00%     81.54% # Number of instructions issued per FU type, per thread (Count)
system.cpu.statIssuedInstType_0::SimdReduceAdd            0      0.00%     81.54% # Number of instructions issued per FU type, per thread (Count)
system.cpu.statIssuedInstType_0::SimdReduceAlu            0      0.00%     81.54% # Number of instructions issued per FU type, per thread (Count)
system.cpu.statIssuedInstType_0::SimdReduceCmp            0      0.00%     81.54% # Number of instructions issued per FU type, per thread (Count)
system.cpu.statIssuedInstType_0::SimdFloatReduceAdd            0      0.00%     81.54% # Number of instructions issued per FU type, per thread (Count)
system.cpu.statIssuedInstType_0::SimdFloatReduceCmp            0      0.00%     81.54% # Number of instructions issued per FU type, per thread (Count)
system.cpu.statIssuedInstType_0::SimdAes            0      0.00%     81.54% # Number of instructions issued per FU type, per thread (Count)
system.cpu.statIssuedInstType_0::SimdAesMix            0      0.00%     81.54% # Number of instructions issued per FU type, per thread (Count)
system.cpu.statIssuedInstType_0::SimdSha1Hash            0      0.00%     81.54% # Number of instructions issued per FU type, per thread (Count)
system.cpu.statIssuedInstType_0::SimdSha1Hash2            0      0.00%     81.54% # Number of instructions issued per FU type, per thread (Count)
system.cpu.statIssuedInstType_0::SimdSha256Hash            0      0.00%     81.54% # Number of instructions issued per FU type, per thread (Count)
system.cpu.statIssuedInstType_0::SimdSha256Hash2            0      0.00%     81.54% # Number of instructions issued per FU type, per thread (Count)
system.cpu.statIssuedInstType_0::SimdShaSigma2            0      0.00%     81.54% # Number of instructions issued per FU type, per thread (Count)
system.cpu.statIssuedInstType_0::SimdShaSigma3            0      0.00%     81.54% # Number of instructions issued per FU type, per thread (Count)
system.cpu.statIssuedInstType_0::SimdPredAlu            0      0.00%     81.54% # Number of instructions issued per FU type, per thread (Count)
system.cpu.statIssuedInstType_0::MemRead         6299     10.80%     92.34% # Number of instructions issued per FU type, per thread (Count)
system.cpu.statIssuedInstType_0::MemWrite         3147      5.39%     97.74% # Number of instructions issued per FU type, per thread (Count)
system.cpu.statIssuedInstType_0::FloatMemRead          815      1.40%     99.13% # Number of instructions issued per FU type, per thread (Count)
system.cpu.statIssuedInstType_0::FloatMemWrite          506      0.87%    100.00% # Number of instructions issued per FU type, per thread (Count)
system.cpu.statIssuedInstType_0::IprAccess            0      0.00%    100.00% # Number of instructions issued per FU type, per thread (Count)
system.cpu.statIssuedInstType_0::InstPrefetch            0      0.00%    100.00% # Number of instructions issued per FU type, per thread (Count)
system.cpu.statIssuedInstType_0::total          58337                       # Number of instructions issued per FU type, per thread (Count)
system.cpu.issueRate                         0.907164                       # Inst issue rate ((Count/Cycle))
system.cpu.fuBusy                                 778                       # FU busy when requested (Count)
system.cpu.fuBusyRate                        0.013336                       # FU busy rate (busy events/executed inst) ((Count/Count))
system.cpu.intInstQueueReads                   159618                       # Number of integer instruction queue reads (Count)
system.cpu.intInstQueueWrites                   93322                       # Number of integer instruction queue writes (Count)
system.cpu.intInstQueueWakeupAccesses           52437                       # Number of integer instruction queue wakeup accesses (Count)
system.cpu.fpInstQueueReads                      6751                       # Number of floating instruction queue reads (Count)
system.cpu.fpInstQueueWrites                     6365                       # Number of floating instruction queue writes (Count)
system.cpu.fpInstQueueWakeupAccesses             3042                       # Number of floating instruction queue wakeup accesses (Count)
system.cpu.vecInstQueueReads                        0                       # Number of vector instruction queue reads (Count)
system.cpu.vecInstQueueWrites                       0                       # Number of vector instruction queue writes (Count)
system.cpu.vecInstQueueWakeupAccesses               0                       # Number of vector instruction queue wakeup accesses (Count)
system.cpu.intAluAccesses                       54882                       # Number of integer alu accesses (Count)
system.cpu.fpAluAccesses                         3388                       # Number of floating point alu accesses (Count)
system.cpu.vecAluAccesses                           0                       # Number of vector alu accesses (Count)
system.cpu.numInsts                             56668                       # Number of executed instructions (Count)
system.cpu.numLoadInsts                          6773                       # Number of load instructions executed (Count)
system.cpu.numSquashedInsts                      1669                       # Number of squashed instructions skipped in execute (Count)
system.cpu.numSwp                                   0                       # Number of swp insts executed (Count)
system.cpu.numNop                                   0                       # Number of nop insts executed (Count)
system.cpu.numRefs                              10305                       # Number of memory reference insts executed (Count)
system.cpu.numBranches                           5608                       # Number of branches executed (Count)
system.cpu.numStoreInsts                         3532                       # Number of stores executed (Count)
system.cpu.numRate                           0.881210                       # Inst execution rate ((Count/Cycle))
system.cpu.timesIdled                             441                       # Number of times that the entire CPU went into an idle state and unscheduled itself (Count)
system.cpu.idleCycles                           15556                       # Total number of cycles that the CPU has spent unscheduled due to idling (Cycle)
system.cpu.committedInsts                       17982                       # Number of Instructions Simulated (Count)
system.cpu.committedOps                         36243                       # Number of Ops (including micro ops) Simulated (Count)
system.cpu.cpi                               3.576187                       # CPI: Cycles Per Instruction ((Cycle/Count))
system.cpu.totalCpi                          3.576187                       # CPI: Total CPI of All Threads ((Cycle/Count))
system.cpu.ipc                               0.279627                       # IPC: Instructions Per Cycle ((Count/Cycle))
system.cpu.totalIpc                          0.279627                       # IPC: Total IPC of All Threads ((Count/Cycle))
system.cpu.intRegfileReads                      76342                       # Number of integer regfile reads (Count)
system.cpu.intRegfileWrites                     43658                       # Number of integer regfile writes (Count)
system.cpu.fpRegfileReads                        4607                       # Number of floating regfile reads (Count)
system.cpu.fpRegfileWrites                       2386                       # Number of floating regfile writes (Count)
system.cpu.ccRegfileReads                       29662                       # number of cc regfile reads (Count)
system.cpu.ccRegfileWrites                      17165                       # number of cc regfile writes (Count)
system.cpu.miscRegfileReads                     22812                       # number of misc regfile reads (Count)
system.cpu.MemDepUnit__0.insertedLoads           7898                       # Number of loads inserted to the mem dependence unit. (Count)
system.cpu.MemDepUnit__0.insertedStores          4260                       # Number of stores inserted to the mem dependence unit. (Count)
system.cpu.MemDepUnit__0.conflictingLoads           35                       # Number of conflicting loads. (Count)
system.cpu.MemDepUnit__0.conflictingStores           26                       # Number of conflicting stores. (Count)
system.cpu.MemDepUnit__1.insertedLoads              0                       # Number of loads inserted to the mem dependence unit. (Count)
system.cpu.MemDepUnit__1.insertedStores             0                       # Number of stores inserted to the mem dependence unit. (Count)
system.cpu.MemDepUnit__1.conflictingLoads            0                       # Number of conflicting loads. (Count)
system.cpu.MemDepUnit__1.conflictingStores            0                       # Number of conflicting stores. (Count)
system.cpu.MemDepUnit__2.insertedLoads              0                       # Number of loads inserted to the mem dependence unit. (Count)
system.cpu.MemDepUnit__2.insertedStores             0                       # Number of stores inserted to the mem dependence unit. (Count)
system.cpu.MemDepUnit__2.conflictingLoads            0                       # Number of conflicting loads. (Count)
system.cpu.MemDepUnit__2.conflictingStores            0                       # Number of conflicting stores. (Count)
system.cpu.MemDepUnit__3.insertedLoads              0                       # Number of loads inserted to the mem dependence unit. (Count)
system.cpu.MemDepUnit__3.insertedStores             0                       # Number of stores inserted to the mem dependence unit. (Count)
system.cpu.MemDepUnit__3.conflictingLoads            0                       # Number of conflicting loads. (Count)
system.cpu.MemDepUnit__3.conflictingStores            0                       # Number of conflicting stores. (Count)
system.cpu.branchPred.lookups                    9573                       # Number of BP lookups (Count)
system.cpu.branchPred.condPredicted              7698                       # Number of conditional branches predicted (Count)
system.cpu.branchPred.condIncorrect              1247                       # Number of conditional branches incorrect (Count)
system.cpu.branchPred.BTBLookups                 3713                       # Number of BTB lookups (Count)
system.cpu.branchPred.BTBHits                    2638                       # Number of BTB hits (Count)
system.cpu.branchPred.BTBHitRatio            0.710477                       # BTB Hit Ratio (Ratio)
system.cpu.branchPred.RASUsed                     534                       # Number of times the RAS was used to get a target. (Count)
system.cpu.branchPred.RASIncorrect                  0                       # Number of incorrect RAS predictions. (Count)
system.cpu.branchPred.indirectLookups             237                       # Number of indirect predictor lookups. (Count)
system.cpu.branchPred.indirectHits                  8                       # Number of indirect target hits. (Count)
system.cpu.branchPred.indirectMisses              229                       # Number of indirect misses. (Count)
system.cpu.branchPred.indirectMispredicted          104                       # Number of mispredicted indirect branches. (Count)
system.cpu.commit.commitSquashedInsts           30765                       # The number of squashed insts skipped by commit (Count)
system.cpu.commit.branchMispredicts               905                       # The number of times a branch was mispredicted (Count)
system.cpu.commit.numCommittedDist::samples        44175                       # Number of insts commited each cycle (Count)
system.cpu.commit.numCommittedDist::mean     0.820441                       # Number of insts commited each cycle (Count)
system.cpu.commit.numCommittedDist::stdev     1.835209                       # Number of insts commited each cycle (Count)
system.cpu.commit.numCommittedDist::underflows            0      0.00%      0.00% # Number of insts commited each cycle (Count)
system.cpu.commit.numCommittedDist::0           32940     74.57%     74.57% # Number of insts commited each cycle (Count)
system.cpu.commit.numCommittedDist::1            3396      7.69%     82.25% # Number of insts commited each cycle (Count)
system.cpu.commit.numCommittedDist::2            1992      4.51%     86.76% # Number of insts commited each cycle (Count)
system.cpu.commit.numCommittedDist::3            2314      5.24%     92.00% # Number of insts commited each cycle (Count)
system.cpu.commit.numCommittedDist::4             998      2.26%     94.26% # Number of insts commited each cycle (Count)
system.cpu.commit.numCommittedDist::5             461      1.04%     95.31% # Number of insts commited each cycle (Count)
system.cpu.commit.numCommittedDist::6             307      0.69%     96.00% # Number of insts commited each cycle (Count)
system.cpu.commit.numCommittedDist::7             354      0.80%     96.80% # Number of insts commited each cycle (Count)
system.cpu.commit.numCommittedDist::8            1413      3.20%    100.00% # Number of insts commited each cycle (Count)
system.cpu.commit.numCommittedDist::overflows            0      0.00%    100.00% # Number of insts commited each cycle (Count)
system.cpu.commit.numCommittedDist::min_value            0                       # Number of insts commited each cycle (Count)
system.cpu.commit.numCommittedDist::max_value            8                       # Number of insts commited each cycle (Count)
system.cpu.commit.numCommittedDist::total        44175                       # Number of insts commited each cycle (Count)
system.cpu.commit.instsCommitted                17982                       # Number of instructions committed (Count)
system.cpu.commit.opsCommitted                  36243                       # Number of ops (including micro ops) committed (Count)
system.cpu.commit.memRefs                        6602                       # Number of memory references committed (Count)
system.cpu.commit.loads                          3942                       # Number of loads committed (Count)
system.cpu.commit.amos                              0                       # Number of atomic instructions committed (Count)
system.cpu.commit.membars                           0                       # Number of memory barriers committed (Count)
system.cpu.commit.branches                       4146                       # Number of branches committed (Count)
system.cpu.commit.vectorInstructions                0                       # Number of committed Vector instructions. (Count)
system.cpu.commit.floating                       1899                       # Number of committed floating point instructions. (Count)
system.cpu.commit.integer                       34443                       # Number of committed integer instructions. (Count)
system.cpu.commit.functionCalls                   245                       # Number of function calls committed. (Count)
system.cpu.commit.committedInstType_0::No_OpClass          392      1.08%      1.08% # Class of committed instruction (Count)
system.cpu.commit.committedInstType_0::IntAlu        28072     77.45%     78.54% # Class of committed instruction (Count)
system.cpu.commit.committedInstType_0::IntMult           14      0.04%     78.58% # Class of committed instruction (Count)
system.cpu.commit.committedInstType_0::IntDiv           45      0.12%     78.70% # Class of committed instruction (Count)
system.cpu.commit.committedInstType_0::FloatAdd           64      0.18%     78.88% # Class of committed instruction (Count)
system.cpu.commit.committedInstType_0::FloatCmp            0      0.00%     78.88% # Class of committed instruction (Count)
system.cpu.commit.committedInstType_0::FloatCvt            0      0.00%     78.88% # Class of committed instruction (Count)
system.cpu.commit.committedInstType_0::FloatMult            0      0.00%     78.88% # Class of committed instruction (Count)
system.cpu.commit.committedInstType_0::FloatMultAcc            0      0.00%     78.88% # Class of committed instruction (Count)
system.cpu.commit.committedInstType_0::FloatDiv            0      0.00%     78.88% # Class of committed instruction (Count)
system.cpu.commit.committedInstType_0::FloatMisc            0      0.00%     78.88% # Class of committed instruction (Count)
system.cpu.commit.committedInstType_0::FloatSqrt            0      0.00%     78.88% # Class of committed instruction (Count)
system.cpu.commit.committedInstType_0::SimdAdd           94      0.26%     79.14% # Class of committed instruction (Count)
system.cpu.commit.committedInstType_0::SimdAddAcc            0      0.00%     79.14% # Class of committed instruction (Count)
system.cpu.commit.committedInstType_0::SimdAlu          286      0.79%     79.92% # Class of committed instruction (Count)
system.cpu.commit.committedInstType_0::SimdCmp            0      0.00%     79.92% # Class of committed instruction (Count)
system.cpu.commit.committedInstType_0::SimdCvt          280      0.77%     80.70% # Class of committed instruction (Count)
system.cpu.commit.committedInstType_0::SimdMisc          347      0.96%     81.65% # Class of committed instruction (Count)
system.cpu.commit.committedInstType_0::SimdMult            0      0.00%     81.65% # Class of committed instruction (Count)
system.cpu.commit.committedInstType_0::SimdMultAcc            0      0.00%     81.65% # Class of committed instruction (Count)
system.cpu.commit.committedInstType_0::SimdShift           47      0.13%     81.78% # Class of committed instruction (Count)
system.cpu.commit.committedInstType_0::SimdShiftAcc            0      0.00%     81.78% # Class of committed instruction (Count)
system.cpu.commit.committedInstType_0::SimdDiv            0      0.00%     81.78% # Class of committed instruction (Count)
system.cpu.commit.committedInstType_0::SimdSqrt            0      0.00%     81.78% # Class of committed instruction (Count)
system.cpu.commit.committedInstType_0::SimdFloatAdd            0      0.00%     81.78% # Class of committed instruction (Count)
system.cpu.commit.committedInstType_0::SimdFloatAlu            0      0.00%     81.78% # Class of committed instruction (Count)
system.cpu.commit.committedInstType_0::SimdFloatCmp            0      0.00%     81.78% # Class of committed instruction (Count)
system.cpu.commit.committedInstType_0::SimdFloatCvt            0      0.00%     81.78% # Class of committed instruction (Count)
system.cpu.commit.committedInstType_0::SimdFloatDiv            0      0.00%     81.78% # Class of committed instruction (Count)
system.cpu.commit.committedInstType_0::SimdFloatMisc            0      0.00%     81.78% # Class of committed instruction (Count)
system.cpu.commit.committedInstType_0::SimdFloatMult            0      0.00%     81.78% # Class of committed instruction (Count)
system.cpu.commit.committedInstType_0::SimdFloatMultAcc            0      0.00%     81.78% # Class of committed instruction (Count)
system.cpu.commit.committedInstType_0::SimdFloatSqrt            0      0.00%     81.78% # Class of committed instruction (Count)
system.cpu.commit.committedInstType_0::SimdReduceAdd            0      0.00%     81.78% # Class of committed instruction (Count)
system.cpu.commit.committedInstType_0::SimdReduceAlu            0      0.00%     81.78% # Class of committed instruction (Count)
system.cpu.commit.committedInstType_0::SimdReduceCmp            0      0.00%     81.78% # Class of committed instruction (Count)
system.cpu.commit.committedInstType_0::SimdFloatReduceAdd            0      0.00%     81.78% # Class of committed instruction (Count)
system.cpu.commit.committedInstType_0::SimdFloatReduceCmp            0      0.00%     81.78% # Class of committed instruction (Count)
system.cpu.commit.committedInstType_0::SimdAes            0      0.00%     81.78% # Class of committed instruction (Count)
system.cpu.commit.committedInstType_0::SimdAesMix            0      0.00%     81.78% # Class of committed instruction (Count)
system.cpu.commit.committedInstType_0::SimdSha1Hash            0      0.00%     81.78% # Class of committed instruction (Count)
system.cpu.commit.committedInstType_0::SimdSha1Hash2            0      0.00%     81.78% # Class of committed instruction (Count)
system.cpu.commit.committedInstType_0::SimdSha256Hash            0      0.00%     81.78% # Class of committed instruction (Count)
system.cpu.commit.committedInstType_0::SimdSha256Hash2            0      0.00%     81.78% # Class of committed instruction (Count)
system.cpu.commit.committedInstType_0::SimdShaSigma2            0      0.00%     81.78% # Class of committed instruction (Count)
system.cpu.commit.committedInstType_0::SimdShaSigma3            0      0.00%     81.78% # Class of committed instruction (Count)
system.cpu.commit.committedInstType_0::SimdPredAlu            0      0.00%     81.78% # Class of committed instruction (Count)
system.cpu.commit.committedInstType_0::MemRead         3616      9.98%     91.76% # Class of committed instruction (Count)
system.cpu.commit.committedInstType_0::MemWrite         2277      6.28%     98.04% # Class of committed instruction (Count)
system.cpu.commit.committedInstType_0::FloatMemRead          326      0.90%     98.94% # Class of committed instruction (Count)
system.cpu.commit.committedInstType_0::FloatMemWrite          383      1.06%    100.00% # Class of committed instruction (Count)
system.cpu.commit.committedInstType_0::IprAccess            0      0.00%    100.00% # Class of committed instruction (Count)
system.cpu.commit.committedInstType_0::InstPrefetch            0      0.00%    100.00% # Class of committed instruction (Count)
system.cpu.commit.committedInstType_0::total        36243                       # Class of committed instruction (Count)
system.cpu.commit.commitEligibleSamples          1413                       # number cycles where commit BW limit reached (Cycle)
system.cpu.dcache.demandHits::cpu.data           8049                       # number of demand (read+write) hits (Count)
system.cpu.dcache.demandHits::total              8049                       # number of demand (read+write) hits (Count)
system.cpu.dcache.overallHits::cpu.data          8049                       # number of overall hits (Count)
system.cpu.dcache.overallHits::total             8049                       # number of overall hits (Count)
system.cpu.dcache.demandMisses::cpu.data          922                       # number of demand (read+write) misses (Count)
system.cpu.dcache.demandMisses::total             922                       # number of demand (read+write) misses (Count)
system.cpu.dcache.overallMisses::cpu.data          922                       # number of overall misses (Count)
system.cpu.dcache.overallMisses::total            922                       # number of overall misses (Count)
system.cpu.dcache.demandMissLatency::cpu.data     54900000                       # number of demand (read+write) miss ticks (Tick)
system.cpu.dcache.demandMissLatency::total     54900000                       # number of demand (read+write) miss ticks (Tick)
system.cpu.dcache.overallMissLatency::cpu.data     54900000                       # number of overall miss ticks (Tick)
system.cpu.dcache.overallMissLatency::total     54900000                       # number of overall miss ticks (Tick)
system.cpu.dcache.demandAccesses::cpu.data         8971                       # number of demand (read+write) accesses (Count)
system.cpu.dcache.demandAccesses::total          8971                       # number of demand (read+write) accesses (Count)
system.cpu.dcache.overallAccesses::cpu.data         8971                       # number of overall (read+write) accesses (Count)
system.cpu.dcache.overallAccesses::total         8971                       # number of overall (read+write) accesses (Count)
system.cpu.dcache.demandMissRate::cpu.data     0.102776                       # miss rate for demand accesses (Ratio)
system.cpu.dcache.demandMissRate::total      0.102776                       # miss rate for demand accesses (Ratio)
system.cpu.dcache.overallMissRate::cpu.data     0.102776                       # miss rate for overall accesses (Ratio)
system.cpu.dcache.overallMissRate::total     0.102776                       # miss rate for overall accesses (Ratio)
system.cpu.dcache.demandAvgMissLatency::cpu.data 59544.468547                       # average overall miss latency ((Cycle/Count))
system.cpu.dcache.demandAvgMissLatency::total 59544.468547                       # average overall miss latency ((Cycle/Count))
system.cpu.dcache.overallAvgMissLatency::cpu.data 59544.468547                       # average overall miss latency ((Cycle/Count))
system.cpu.dcache.overallAvgMissLatency::total 59544.468547                       # average overall miss latency ((Cycle/Count))
system.cpu.dcache.blockedCycles::no_mshrs          645                       # number of cycles access was blocked (Cycle)
system.cpu.dcache.blockedCycles::no_targets            0                       # number of cycles access was blocked (Cycle)
system.cpu.dcache.blockedCauses::no_mshrs           18                       # number of times access was blocked (Count)
system.cpu.dcache.blockedCauses::no_targets            0                       # number of times access was blocked (Count)
system.cpu.dcache.avgBlocked::no_mshrs      35.833333                       # average number of cycles each access was blocked ((Cycle/Count))
system.cpu.dcache.avgBlocked::no_targets          nan                       # average number of cycles each access was blocked ((Cycle/Count))
system.cpu.dcache.writebacks::writebacks          138                       # number of writebacks (Count)
system.cpu.dcache.writebacks::total               138                       # number of writebacks (Count)
system.cpu.dcache.demandMshrHits::cpu.data          389                       # number of demand (read+write) MSHR hits (Count)
system.cpu.dcache.demandMshrHits::total           389                       # number of demand (read+write) MSHR hits (Count)
system.cpu.dcache.overallMshrHits::cpu.data          389                       # number of overall MSHR hits (Count)
system.cpu.dcache.overallMshrHits::total          389                       # number of overall MSHR hits (Count)
system.cpu.dcache.demandMshrMisses::cpu.data          533                       # number of demand (read+write) MSHR misses (Count)
system.cpu.dcache.demandMshrMisses::total          533                       # number of demand (read+write) MSHR misses (Count)
system.cpu.dcache.overallMshrMisses::cpu.data          533                       # number of overall MSHR misses (Count)
system.cpu.dcache.overallMshrMisses::total          533                       # number of overall MSHR misses (Count)
system.cpu.dcache.demandMshrMissLatency::cpu.data     33647000                       # number of demand (read+write) MSHR miss ticks (Tick)
system.cpu.dcache.demandMshrMissLatency::total     33647000                       # number of demand (read+write) MSHR miss ticks (Tick)
system.cpu.dcache.overallMshrMissLatency::cpu.data     33647000                       # number of overall MSHR miss ticks (Tick)
system.cpu.dcache.overallMshrMissLatency::total     33647000                       # number of overall MSHR miss ticks (Tick)
system.cpu.dcache.demandMshrMissRate::cpu.data     0.059414                       # mshr miss ratio for demand accesses (Ratio)
system.cpu.dcache.demandMshrMissRate::total     0.059414                       # mshr miss ratio for demand accesses (Ratio)
system.cpu.dcache.overallMshrMissRate::cpu.data     0.059414                       # mshr miss ratio for overall accesses (Ratio)
system.cpu.dcache.overallMshrMissRate::total     0.059414                       # mshr miss ratio for overall accesses (Ratio)
system.cpu.dcache.demandAvgMshrMissLatency::cpu.data 63127.579737                       # average overall mshr miss latency ((Cycle/Count))
system.cpu.dcache.demandAvgMshrMissLatency::total 63127.579737                       # average overall mshr miss latency ((Cycle/Count))
system.cpu.dcache.overallAvgMshrMissLatency::cpu.data 63127.579737                       # average overall mshr miss latency ((Cycle/Count))
system.cpu.dcache.overallAvgMshrMissLatency::total 63127.579737                       # average overall mshr miss latency ((Cycle/Count))
system.cpu.dcache.replacements                    287                       # number of replacements (Count)
system.cpu.dcache.ReadReq.hits::cpu.data         5626                       # number of ReadReq hits (Count)
system.cpu.dcache.ReadReq.hits::total            5626                       # number of ReadReq hits (Count)
system.cpu.dcache.ReadReq.misses::cpu.data          684                       # number of ReadReq misses (Count)
system.cpu.dcache.ReadReq.misses::total           684                       # number of ReadReq misses (Count)
system.cpu.dcache.ReadReq.missLatency::cpu.data     40180000                       # number of ReadReq miss ticks (Tick)
system.cpu.dcache.ReadReq.missLatency::total     40180000                       # number of ReadReq miss ticks (Tick)
system.cpu.dcache.ReadReq.accesses::cpu.data         6310                       # number of ReadReq accesses(hits+misses) (Count)
system.cpu.dcache.ReadReq.accesses::total         6310                       # number of ReadReq accesses(hits+misses) (Count)
system.cpu.dcache.ReadReq.missRate::cpu.data     0.108399                       # miss rate for ReadReq accesses (Ratio)
system.cpu.dcache.ReadReq.missRate::total     0.108399                       # miss rate for ReadReq accesses (Ratio)
system.cpu.dcache.ReadReq.avgMissLatency::cpu.data 58742.690058                       # average ReadReq miss latency ((Tick/Count))
system.cpu.dcache.ReadReq.avgMissLatency::total 58742.690058                       # average ReadReq miss latency ((Tick/Count))
system.cpu.dcache.ReadReq.mshrHits::cpu.data          385                       # number of ReadReq MSHR hits (Count)
system.cpu.dcache.ReadReq.mshrHits::total          385                       # number of ReadReq MSHR hits (Count)
system.cpu.dcache.ReadReq.mshrMisses::cpu.data          299                       # number of ReadReq MSHR misses (Count)
system.cpu.dcache.ReadReq.mshrMisses::total          299                       # number of ReadReq MSHR misses (Count)
system.cpu.dcache.ReadReq.mshrMissLatency::cpu.data     19562000                       # number of ReadReq MSHR miss ticks (Tick)
system.cpu.dcache.ReadReq.mshrMissLatency::total     19562000                       # number of ReadReq MSHR miss ticks (Tick)
system.cpu.dcache.ReadReq.mshrMissRate::cpu.data     0.047385                       # mshr miss rate for ReadReq accesses (Ratio)
system.cpu.dcache.ReadReq.mshrMissRate::total     0.047385                       # mshr miss rate for ReadReq accesses (Ratio)
system.cpu.dcache.ReadReq.avgMshrMissLatency::cpu.data 65424.749164                       # average ReadReq mshr miss latency ((Tick/Count))
system.cpu.dcache.ReadReq.avgMshrMissLatency::total 65424.749164                       # average ReadReq mshr miss latency ((Tick/Count))
system.cpu.dcache.WriteReq.hits::cpu.data         2423                       # number of WriteReq hits (Count)
system.cpu.dcache.WriteReq.hits::total           2423                       # number of WriteReq hits (Count)
system.cpu.dcache.WriteReq.misses::cpu.data          238                       # number of WriteReq misses (Count)
system.cpu.dcache.WriteReq.misses::total          238                       # number of WriteReq misses (Count)
system.cpu.dcache.WriteReq.missLatency::cpu.data     14720000                       # number of WriteReq miss ticks (Tick)
system.cpu.dcache.WriteReq.missLatency::total     14720000                       # number of WriteReq miss ticks (Tick)
system.cpu.dcache.WriteReq.accesses::cpu.data         2661                       # number of WriteReq accesses(hits+misses) (Count)
system.cpu.dcache.WriteReq.accesses::total         2661                       # number of WriteReq accesses(hits+misses) (Count)
system.cpu.dcache.WriteReq.missRate::cpu.data     0.089440                       # miss rate for WriteReq accesses (Ratio)
system.cpu.dcache.WriteReq.missRate::total     0.089440                       # miss rate for WriteReq accesses (Ratio)
system.cpu.dcache.WriteReq.avgMissLatency::cpu.data 61848.739496                       # average WriteReq miss latency ((Tick/Count))
system.cpu.dcache.WriteReq.avgMissLatency::total 61848.739496                       # average WriteReq miss latency ((Tick/Count))
system.cpu.dcache.WriteReq.mshrHits::cpu.data            4                       # number of WriteReq MSHR hits (Count)
system.cpu.dcache.WriteReq.mshrHits::total            4                       # number of WriteReq MSHR hits (Count)
system.cpu.dcache.WriteReq.mshrMisses::cpu.data          234                       # number of WriteReq MSHR misses (Count)
system.cpu.dcache.WriteReq.mshrMisses::total          234                       # number of WriteReq MSHR misses (Count)
system.cpu.dcache.WriteReq.mshrMissLatency::cpu.data     14085000                       # number of WriteReq MSHR miss ticks (Tick)
system.cpu.dcache.WriteReq.mshrMissLatency::total     14085000                       # number of WriteReq MSHR miss ticks (Tick)
system.cpu.dcache.WriteReq.mshrMissRate::cpu.data     0.087937                       # mshr miss rate for WriteReq accesses (Ratio)
system.cpu.dcache.WriteReq.mshrMissRate::total     0.087937                       # mshr miss rate for WriteReq accesses (Ratio)
system.cpu.dcache.WriteReq.avgMshrMissLatency::cpu.data 60192.307692                       # average WriteReq mshr miss latency ((Tick/Count))
system.cpu.dcache.WriteReq.avgMshrMissLatency::total 60192.307692                       # average WriteReq mshr miss latency ((Tick/Count))
system.cpu.dcache.power_state.pwrStateResidencyTicks::UNDEFINED     64306000                       # Cumulative time (in ticks) in various power states (Tick)
system.cpu.dcache.tags.tagsInUse           176.431827                       # Average ticks per tags in use ((Tick/Count))
system.cpu.dcache.tags.totalRefs                 8582                       # Total number of references to valid blocks. (Count)
system.cpu.dcache.tags.sampledRefs                533                       # Sample count of references to valid blocks. (Count)
system.cpu.dcache.tags.avgRefs              16.101313                       # Average number of references to valid blocks. ((Count/Count))
system.cpu.dcache.tags.warmupTick              155000                       # The tick when the warmup percentage was hit. (Tick)
system.cpu.dcache.tags.occupancies::cpu.data   176.431827                       # Average occupied blocks per tick, per requestor ((Count/Tick))
system.cpu.dcache.tags.avgOccs::cpu.data     0.689187                       # Average percentage of cache occupancy ((Ratio/Tick))
system.cpu.dcache.tags.avgOccs::total        0.689187                       # Average percentage of cache occupancy ((Ratio/Tick))
system.cpu.dcache.tags.occupanciesTaskId::1024          246                       # Occupied blocks per task id (Count)
system.cpu.dcache.tags.ageTaskId_1024::0           88                       # Occupied blocks per task id, per block age (Count)
system.cpu.dcache.tags.ageTaskId_1024::1          158                       # Occupied blocks per task id, per block age (Count)
system.cpu.dcache.tags.ratioOccsTaskId::1024     0.960938                       # Ratio of occupied blocks and all blocks, per task id (Ratio)
system.cpu.dcache.tags.tagAccesses              18475                       # Number of tag accesses (Count)
system.cpu.dcache.tags.dataAccesses             18475                       # Number of data accesses (Count)
system.cpu.dcache.tags.power_state.pwrStateResidencyTicks::UNDEFINED     64306000                       # Cumulative time (in ticks) in various power states (Tick)
system.cpu.decode.idleCycles                    23489                       # Number of cycles decode is idle (Cycle)
system.cpu.decode.blockedCycles                 12926                       # Number of cycles decode is blocked (Cycle)
system.cpu.decode.runCycles                     10035                       # Number of cycles decode is running (Cycle)
system.cpu.decode.unblockCycles                  1319                       # Number of cycles decode is unblocking (Cycle)
system.cpu.decode.squashCycles                    982                       # Number of cycles decode is squashing (Cycle)
system.cpu.decode.branchResolved                 2738                       # Number of times decode resolved a branch (Count)
system.cpu.decode.branchMispred                   349                       # Number of times decode detected a branch misprediction (Count)
system.cpu.decode.decodedInsts                  76297                       # Number of instructions handled by decode (Count)
system.cpu.decode.squashedInsts                  1701                       # Number of squashed instructions handled by decode (Count)
system.cpu.dtb_walker_cache.blockedCycles::no_mshrs            0                       # number of cycles access was blocked (Cycle)
system.cpu.dtb_walker_cache.blockedCycles::no_targets            0                       # number of cycles access was blocked (Cycle)
system.cpu.dtb_walker_cache.blockedCauses::no_mshrs            0                       # number of times access was blocked (Count)
system.cpu.dtb_walker_cache.blockedCauses::no_targets            0                       # number of times access was blocked (Count)
system.cpu.dtb_walker_cache.avgBlocked::no_mshrs          nan                       # average number of cycles each access was blocked ((Cycle/Count))
system.cpu.dtb_walker_cache.avgBlocked::no_targets          nan                       # average number of cycles each access was blocked ((Cycle/Count))
system.cpu.dtb_walker_cache.replacements            0                       # number of replacements (Count)
system.cpu.dtb_walker_cache.power_state.pwrStateResidencyTicks::UNDEFINED     64306000                       # Cumulative time (in ticks) in various power states (Tick)
system.cpu.dtb_walker_cache.tags.tagsInUse            0                       # Average ticks per tags in use ((Tick/Count))
system.cpu.dtb_walker_cache.tags.totalRefs            0                       # Total number of references to valid blocks. (Count)
system.cpu.dtb_walker_cache.tags.sampledRefs            0                       # Sample count of references to valid blocks. (Count)
system.cpu.dtb_walker_cache.tags.avgRefs          nan                       # Average number of references to valid blocks. ((Count/Count))
system.cpu.dtb_walker_cache.tags.warmupTick            0                       # The tick when the warmup percentage was hit. (Tick)
system.cpu.dtb_walker_cache.tags.tagAccesses            0                       # Number of tag accesses (Count)
system.cpu.dtb_walker_cache.tags.dataAccesses            0                       # Number of data accesses (Count)
system.cpu.dtb_walker_cache.tags.power_state.pwrStateResidencyTicks::UNDEFINED     64306000                       # Cumulative time (in ticks) in various power states (Tick)
system.cpu.fetch.icacheStallCycles              25294                       # Number of cycles fetch is stalled on an Icache miss (Cycle)
system.cpu.fetch.insts                          43330                       # Number of instructions fetch has processed (Count)
system.cpu.fetch.branches                        9573                       # Number of branches that fetch encountered (Count)
system.cpu.fetch.predictedBranches               3180                       # Number of branches that fetch has predicted taken (Count)
system.cpu.fetch.cycles                         22131                       # Number of cycles fetch has run and was not squashing or blocked (Cycle)
system.cpu.fetch.squashCycles                    2648                       # Number of cycles fetch has spent squashing (Cycle)
system.cpu.fetch.pendingQuiesceStallCycles            2                       # Number of stall cycles due to pending quiesce instructions (Cycle)
system.cpu.fetch.cacheLines                      5963                       # Number of cache lines fetched (Count)
system.cpu.fetch.icacheSquashes                   703                       # Number of outstanding Icache misses that were squashed (Count)
system.cpu.fetch.nisnDist::samples              48751                       # Number of instructions fetched each cycle (Total) (Count)
system.cpu.fetch.nisnDist::mean              1.739718                       # Number of instructions fetched each cycle (Total) (Count)
system.cpu.fetch.nisnDist::stdev             3.096374                       # Number of instructions fetched each cycle (Total) (Count)
system.cpu.fetch.nisnDist::underflows               0      0.00%      0.00% # Number of instructions fetched each cycle (Total) (Count)
system.cpu.fetch.nisnDist::0                    35687     73.20%     73.20% # Number of instructions fetched each cycle (Total) (Count)
system.cpu.fetch.nisnDist::1                      546      1.12%     74.32% # Number of instructions fetched each cycle (Total) (Count)
system.cpu.fetch.nisnDist::2                      703      1.44%     75.76% # Number of instructions fetched each cycle (Total) (Count)
system.cpu.fetch.nisnDist::3                      665      1.36%     77.13% # Number of instructions fetched each cycle (Total) (Count)
system.cpu.fetch.nisnDist::4                      891      1.83%     78.96% # Number of instructions fetched each cycle (Total) (Count)
system.cpu.fetch.nisnDist::5                      743      1.52%     80.48% # Number of instructions fetched each cycle (Total) (Count)
system.cpu.fetch.nisnDist::6                      930      1.91%     82.39% # Number of instructions fetched each cycle (Total) (Count)
system.cpu.fetch.nisnDist::7                      681      1.40%     83.78% # Number of instructions fetched each cycle (Total) (Count)
system.cpu.fetch.nisnDist::8                     7905     16.22%    100.00% # Number of instructions fetched each cycle (Total) (Count)
system.cpu.fetch.nisnDist::overflows                0      0.00%    100.00% # Number of instructions fetched each cycle (Total) (Count)
system.cpu.fetch.nisnDist::min_value                0                       # Number of instructions fetched each cycle (Total) (Count)
system.cpu.fetch.nisnDist::max_value                8                       # Number of instructions fetched each cycle (Total) (Count)
system.cpu.fetch.nisnDist::total                48751                       # Number of instructions fetched each cycle (Total) (Count)
system.cpu.fetch.branchRate                  0.148864                       # Number of branch fetches per cycle (Ratio)
system.cpu.fetch.rate                        0.673799                       # Number of inst fetches per cycle ((Count/Cycle))
system.cpu.icache.demandHits::cpu.inst           4886                       # number of demand (read+write) hits (Count)
system.cpu.icache.demandHits::total              4886                       # number of demand (read+write) hits (Count)
system.cpu.icache.overallHits::cpu.inst          4886                       # number of overall hits (Count)
system.cpu.icache.overallHits::total             4886                       # number of overall hits (Count)
system.cpu.icache.demandMisses::cpu.inst         1077                       # number of demand (read+write) misses (Count)
system.cpu.icache.demandMisses::total            1077                       # number of demand (read+write) misses (Count)
system.cpu.icache.overallMisses::cpu.inst         1077                       # number of overall misses (Count)
system.cpu.icache.overallMisses::total           1077                       # number of overall misses (Count)
system.cpu.icache.demandMissLatency::cpu.inst     62615000                       # number of demand (read+write) miss ticks (Tick)
system.cpu.icache.demandMissLatency::total     62615000                       # number of demand (read+write) miss ticks (Tick)
system.cpu.icache.overallMissLatency::cpu.inst     62615000                       # number of overall miss ticks (Tick)
system.cpu.icache.overallMissLatency::total     62615000                       # number of overall miss ticks (Tick)
system.cpu.icache.demandAccesses::cpu.inst         5963                       # number of demand (read+write) accesses (Count)
system.cpu.icache.demandAccesses::total          5963                       # number of demand (read+write) accesses (Count)
system.cpu.icache.overallAccesses::cpu.inst         5963                       # number of overall (read+write) accesses (Count)
system.cpu.icache.overallAccesses::total         5963                       # number of overall (read+write) accesses (Count)
system.cpu.icache.demandMissRate::cpu.inst     0.180614                       # miss rate for demand accesses (Ratio)
system.cpu.icache.demandMissRate::total      0.180614                       # miss rate for demand accesses (Ratio)
system.cpu.icache.overallMissRate::cpu.inst     0.180614                       # miss rate for overall accesses (Ratio)
system.cpu.icache.overallMissRate::total     0.180614                       # miss rate for overall accesses (Ratio)
system.cpu.icache.demandAvgMissLatency::cpu.inst 58138.347261                       # average overall miss latency ((Cycle/Count))
system.cpu.icache.demandAvgMissLatency::total 58138.347261                       # average overall miss latency ((Cycle/Count))
system.cpu.icache.overallAvgMissLatency::cpu.inst 58138.347261                       # average overall miss latency ((Cycle/Count))
system.cpu.icache.overallAvgMissLatency::total 58138.347261                       # average overall miss latency ((Cycle/Count))
system.cpu.icache.blockedCycles::no_mshrs           43                       # number of cycles access was blocked (Cycle)
system.cpu.icache.blockedCycles::no_targets            0                       # number of cycles access was blocked (Cycle)
system.cpu.icache.blockedCauses::no_mshrs            2                       # number of times access was blocked (Count)
system.cpu.icache.blockedCauses::no_targets            0                       # number of times access was blocked (Count)
system.cpu.icache.avgBlocked::no_mshrs      21.500000                       # average number of cycles each access was blocked ((Cycle/Count))
system.cpu.icache.avgBlocked::no_targets          nan                       # average number of cycles each access was blocked ((Cycle/Count))
system.cpu.icache.writebacks::writebacks          561                       # number of writebacks (Count)
system.cpu.icache.writebacks::total               561                       # number of writebacks (Count)
system.cpu.icache.demandMshrHits::cpu.inst          261                       # number of demand (read+write) MSHR hits (Count)
system.cpu.icache.demandMshrHits::total           261                       # number of demand (read+write) MSHR hits (Count)
system.cpu.icache.overallMshrHits::cpu.inst          261                       # number of overall MSHR hits (Count)
system.cpu.icache.overallMshrHits::total          261                       # number of overall MSHR hits (Count)
system.cpu.icache.demandMshrMisses::cpu.inst          816                       # number of demand (read+write) MSHR misses (Count)
system.cpu.icache.demandMshrMisses::total          816                       # number of demand (read+write) MSHR misses (Count)
system.cpu.icache.overallMshrMisses::cpu.inst          816                       # number of overall MSHR misses (Count)
system.cpu.icache.overallMshrMisses::total          816                       # number of overall MSHR misses (Count)
system.cpu.icache.demandMshrMissLatency::cpu.inst     49844000                       # number of demand (read+write) MSHR miss ticks (Tick)
system.cpu.icache.demandMshrMissLatency::total     49844000                       # number of demand (read+write) MSHR miss ticks (Tick)
system.cpu.icache.overallMshrMissLatency::cpu.inst     49844000                       # number of overall MSHR miss ticks (Tick)
system.cpu.icache.overallMshrMissLatency::total     49844000                       # number of overall MSHR miss ticks (Tick)
system.cpu.icache.demandMshrMissRate::cpu.inst     0.136844                       # mshr miss ratio for demand accesses (Ratio)
system.cpu.icache.demandMshrMissRate::total     0.136844                       # mshr miss ratio for demand accesses (Ratio)
system.cpu.icache.overallMshrMissRate::cpu.inst     0.136844                       # mshr miss ratio for overall accesses (Ratio)
system.cpu.icache.overallMshrMissRate::total     0.136844                       # mshr miss ratio for overall accesses (Ratio)
system.cpu.icache.demandAvgMshrMissLatency::cpu.inst 61083.333333                       # average overall mshr miss latency ((Cycle/Count))
system.cpu.icache.demandAvgMshrMissLatency::total 61083.333333                       # average overall mshr miss latency ((Cycle/Count))
system.cpu.icache.overallAvgMshrMissLatency::cpu.inst 61083.333333                       # average overall mshr miss latency ((Cycle/Count))
system.cpu.icache.overallAvgMshrMissLatency::total 61083.333333                       # average overall mshr miss latency ((Cycle/Count))
system.cpu.icache.replacements                    561                       # number of replacements (Count)
system.cpu.icache.ReadReq.hits::cpu.inst         4886                       # number of ReadReq hits (Count)
system.cpu.icache.ReadReq.hits::total            4886                       # number of ReadReq hits (Count)
system.cpu.icache.ReadReq.misses::cpu.inst         1077                       # number of ReadReq misses (Count)
system.cpu.icache.ReadReq.misses::total          1077                       # number of ReadReq misses (Count)
system.cpu.icache.ReadReq.missLatency::cpu.inst     62615000                       # number of ReadReq miss ticks (Tick)
system.cpu.icache.ReadReq.missLatency::total     62615000                       # number of ReadReq miss ticks (Tick)
system.cpu.icache.ReadReq.accesses::cpu.inst         5963                       # number of ReadReq accesses(hits+misses) (Count)
system.cpu.icache.ReadReq.accesses::total         5963                       # number of ReadReq accesses(hits+misses) (Count)
system.cpu.icache.ReadReq.missRate::cpu.inst     0.180614                       # miss rate for ReadReq accesses (Ratio)
system.cpu.icache.ReadReq.missRate::total     0.180614                       # miss rate for ReadReq accesses (Ratio)
system.cpu.icache.ReadReq.avgMissLatency::cpu.inst 58138.347261                       # average ReadReq miss latency ((Tick/Count))
system.cpu.icache.ReadReq.avgMissLatency::total 58138.347261                       # average ReadReq miss latency ((Tick/Count))
system.cpu.icache.ReadReq.mshrHits::cpu.inst          261                       # number of ReadReq MSHR hits (Count)
system.cpu.icache.ReadReq.mshrHits::total          261                       # number of ReadReq MSHR hits (Count)
system.cpu.icache.ReadReq.mshrMisses::cpu.inst          816                       # number of ReadReq MSHR misses (Count)
system.cpu.icache.ReadReq.mshrMisses::total          816                       # number of ReadReq MSHR misses (Count)
system.cpu.icache.ReadReq.mshrMissLatency::cpu.inst     49844000                       # number of ReadReq MSHR miss ticks (Tick)
system.cpu.icache.ReadReq.mshrMissLatency::total     49844000                       # number of ReadReq MSHR miss ticks (Tick)
system.cpu.icache.ReadReq.mshrMissRate::cpu.inst     0.136844                       # mshr miss rate for ReadReq accesses (Ratio)
system.cpu.icache.ReadReq.mshrMissRate::total     0.136844                       # mshr miss rate for ReadReq accesses (Ratio)
system.cpu.icache.ReadReq.avgMshrMissLatency::cpu.inst 61083.333333                       # average ReadReq mshr miss latency ((Tick/Count))
system.cpu.icache.ReadReq.avgMshrMissLatency::total 61083.333333                       # average ReadReq mshr miss latency ((Tick/Count))
system.cpu.icache.power_state.pwrStateResidencyTicks::UNDEFINED     64306000                       # Cumulative time (in ticks) in various power states (Tick)
system.cpu.icache.tags.tagsInUse           204.489800                       # Average ticks per tags in use ((Tick/Count))
system.cpu.icache.tags.totalRefs                 5702                       # Total number of references to valid blocks. (Count)
system.cpu.icache.tags.sampledRefs                816                       # Sample count of references to valid blocks. (Count)
system.cpu.icache.tags.avgRefs               6.987745                       # Average number of references to valid blocks. ((Count/Count))
system.cpu.icache.tags.warmupTick               77000                       # The tick when the warmup percentage was hit. (Tick)
system.cpu.icache.tags.occupancies::cpu.inst   204.489800                       # Average occupied blocks per tick, per requestor ((Count/Tick))
system.cpu.icache.tags.avgOccs::cpu.inst     0.798788                       # Average percentage of cache occupancy ((Ratio/Tick))
system.cpu.icache.tags.avgOccs::total        0.798788                       # Average percentage of cache occupancy ((Ratio/Tick))
system.cpu.icache.tags.occupanciesTaskId::1024          255                       # Occupied blocks per task id (Count)
system.cpu.icache.tags.ageTaskId_1024::0           68                       # Occupied blocks per task id, per block age (Count)
system.cpu.icache.tags.ageTaskId_1024::1          187                       # Occupied blocks per task id, per block age (Count)
system.cpu.icache.tags.ratioOccsTaskId::1024     0.996094                       # Ratio of occupied blocks and all blocks, per task id (Ratio)
system.cpu.icache.tags.tagAccesses              12742                       # Number of tag accesses (Count)
system.cpu.icache.tags.dataAccesses             12742                       # Number of data accesses (Count)
system.cpu.icache.tags.power_state.pwrStateResidencyTicks::UNDEFINED     64306000                       # Cumulative time (in ticks) in various power states (Tick)
system.cpu.iew.idleCycles                           0                       # Number of cycles IEW is idle (Cycle)
system.cpu.iew.squashCycles                       982                       # Number of cycles IEW is squashing (Cycle)
system.cpu.iew.blockCycles                       5457                       # Number of cycles IEW is blocking (Cycle)
system.cpu.iew.unblockCycles                      855                       # Number of cycles IEW is unblocking (Cycle)
system.cpu.iew.dispatchedInsts                  67950                       # Number of instructions dispatched to IQ (Count)
system.cpu.iew.dispSquashedInsts                  168                       # Number of squashed instructions skipped by dispatch (Count)
system.cpu.iew.dispLoadInsts                     7898                       # Number of dispatched load instructions (Count)
system.cpu.iew.dispStoreInsts                    4260                       # Number of dispatched store instructions (Count)
system.cpu.iew.dispNonSpecInsts                     1                       # Number of dispatched non-speculative instructions (Count)
system.cpu.iew.iqFullEvents                        57                       # Number of times the IQ has become full, causing a stall (Count)
system.cpu.iew.lsqFullEvents                      761                       # Number of times the LSQ has become full, causing a stall (Count)
system.cpu.iew.memOrderViolationEvents             38                       # Number of memory order violations (Count)
system.cpu.iew.predictedTakenIncorrect            157                       # Number of branches that were predicted taken incorrectly (Count)
system.cpu.iew.predictedNotTakenIncorrect          945                       # Number of branches that were predicted not taken incorrectly (Count)
system.cpu.iew.branchMispredicts                 1102                       # Number of branch mispredicts detected at execute (Count)
system.cpu.iew.instsToCommit                    55934                       # Cumulative count of insts sent to commit (Count)
system.cpu.iew.writebackCount                   55479                       # Cumulative count of insts written-back (Count)
system.cpu.iew.producerInst                     39971                       # Number of instructions producing a value (Count)
system.cpu.iew.consumerInst                     66335                       # Number of instructions consuming a value (Count)
system.cpu.iew.wbRate                        0.862721                       # Insts written-back per cycle ((Count/Cycle))
system.cpu.iew.wbFanout                      0.602563                       # Average fanout of values written-back ((Count/Count))
system.cpu.interrupts.clk_domain.clock          16000                       # Clock period in ticks (Tick)
system.cpu.itb_walker_cache.blockedCycles::no_mshrs            0                       # number of cycles access was blocked (Cycle)
system.cpu.itb_walker_cache.blockedCycles::no_targets            0                       # number of cycles access was blocked (Cycle)
system.cpu.itb_walker_cache.blockedCauses::no_mshrs            0                       # number of times access was blocked (Count)
system.cpu.itb_walker_cache.blockedCauses::no_targets            0                       # number of times access was blocked (Count)
system.cpu.itb_walker_cache.avgBlocked::no_mshrs          nan                       # average number of cycles each access was blocked ((Cycle/Count))
system.cpu.itb_walker_cache.avgBlocked::no_targets          nan                       # average number of cycles each access was blocked ((Cycle/Count))
system.cpu.itb_walker_cache.replacements            0                       # number of replacements (Count)
system.cpu.itb_walker_cache.power_state.pwrStateResidencyTicks::UNDEFINED     64306000                       # Cumulative time (in ticks) in various power states (Tick)
system.cpu.itb_walker_cache.tags.tagsInUse            0                       # Average ticks per tags in use ((Tick/Count))
system.cpu.itb_walker_cache.tags.totalRefs            0                       # Total number of references to valid blocks. (Count)
system.cpu.itb_walker_cache.tags.sampledRefs            0                       # Sample count of references to valid blocks. (Count)
system.cpu.itb_walker_cache.tags.avgRefs          nan                       # Average number of references to valid blocks. ((Count/Count))
system.cpu.itb_walker_cache.tags.warmupTick            0                       # The tick when the warmup percentage was hit. (Tick)
system.cpu.itb_walker_cache.tags.tagAccesses            0                       # Number of tag accesses (Count)
system.cpu.itb_walker_cache.tags.dataAccesses            0                       # Number of data accesses (Count)
system.cpu.itb_walker_cache.tags.power_state.pwrStateResidencyTicks::UNDEFINED     64306000                       # Cumulative time (in ticks) in various power states (Tick)
system.cpu.lsq0.forwLoads                         339                       # Number of loads that had data forwarded from stores (Count)
system.cpu.lsq0.squashedLoads                    3956                       # Number of loads squashed (Count)
system.cpu.lsq0.ignoredResponses                    7                       # Number of memory responses ignored because the instruction is squashed (Count)
system.cpu.lsq0.memOrderViolation                  38                       # Number of memory ordering violations (Count)
system.cpu.lsq0.squashedStores                   1600                       # Number of stores squashed (Count)
system.cpu.lsq0.rescheduledLoads                    2                       # Number of loads that were rescheduled (Count)
system.cpu.lsq0.blockedByCache                     17                       # Number of times an access to memory failed due to the cache being blocked (Count)
system.cpu.lsq0.loadToUse::samples               3942                       # Distribution of cycle latency between the first time a load is issued and its completion (Unspecified)
system.cpu.lsq0.loadToUse::mean              8.919584                       # Distribution of cycle latency between the first time a load is issued and its completion (Unspecified)
system.cpu.lsq0.loadToUse::stdev            20.890730                       # Distribution of cycle latency between the first time a load is issued and its completion (Unspecified)
system.cpu.lsq0.loadToUse::0-9                   3571     90.59%     90.59% # Distribution of cycle latency between the first time a load is issued and its completion (Unspecified)
system.cpu.lsq0.loadToUse::10-19                   17      0.43%     91.02% # Distribution of cycle latency between the first time a load is issued and its completion (Unspecified)
system.cpu.lsq0.loadToUse::20-29                   17      0.43%     91.45% # Distribution of cycle latency between the first time a load is issued and its completion (Unspecified)
system.cpu.lsq0.loadToUse::30-39                   12      0.30%     91.76% # Distribution of cycle latency between the first time a load is issued and its completion (Unspecified)
system.cpu.lsq0.loadToUse::40-49                   17      0.43%     92.19% # Distribution of cycle latency between the first time a load is issued and its completion (Unspecified)
system.cpu.lsq0.loadToUse::50-59                  161      4.08%     96.27% # Distribution of cycle latency between the first time a load is issued and its completion (Unspecified)
system.cpu.lsq0.loadToUse::60-69                   54      1.37%     97.64% # Distribution of cycle latency between the first time a load is issued and its completion (Unspecified)
system.cpu.lsq0.loadToUse::70-79                   28      0.71%     98.35% # Distribution of cycle latency between the first time a load is issued and its completion (Unspecified)
system.cpu.lsq0.loadToUse::80-89                   42      1.07%     99.42% # Distribution of cycle latency between the first time a load is issued and its completion (Unspecified)
system.cpu.lsq0.loadToUse::90-99                    2      0.05%     99.47% # Distribution of cycle latency between the first time a load is issued and its completion (Unspecified)
system.cpu.lsq0.loadToUse::100-109                  6      0.15%     99.62% # Distribution of cycle latency between the first time a load is issued and its completion (Unspecified)
system.cpu.lsq0.loadToUse::110-119                  3      0.08%     99.70% # Distribution of cycle latency between the first time a load is issued and its completion (Unspecified)
system.cpu.lsq0.loadToUse::120-129                  3      0.08%     99.77% # Distribution of cycle latency between the first time a load is issued and its completion (Unspecified)
[...]
system.mem_ctrls.dram.bwWrite::total        137343327                       # Write bandwidth from this memory ((Byte/Second))
system.mem_ctrls.dram.bwTotal::writebacks    137343327                       # Total bandwidth to/from this memory ((Byte/Second))
system.mem_ctrls.dram.bwTotal::cpu.inst     812117065                       # Total bandwidth to/from this memory ((Byte/Second))
system.mem_ctrls.dram.bwTotal::cpu.data     530463720                       # Total bandwidth to/from this memory ((Byte/Second))
system.mem_ctrls.dram.bwTotal::total       1479924113                       # Total bandwidth to/from this memory ((Byte/Second))
system.mem_ctrls.dram.readBursts                 1320                       # Number of DRAM read bursts (Count)
system.mem_ctrls.dram.writeBursts                 666                       # Number of DRAM write bursts (Count)
system.mem_ctrls.dram.perBankRdBursts::0          101                       # Per bank write bursts (Count)
system.mem_ctrls.dram.perBankRdBursts::1           57                       # Per bank write bursts (Count)
system.mem_ctrls.dram.perBankRdBursts::2           57                       # Per bank write bursts (Count)
system.mem_ctrls.dram.perBankRdBursts::3           35                       # Per bank write bursts (Count)
system.mem_ctrls.dram.perBankRdBursts::4           96                       # Per bank write bursts (Count)
system.mem_ctrls.dram.perBankRdBursts::5          106                       # Per bank write bursts (Count)
system.mem_ctrls.dram.perBankRdBursts::6           55                       # Per bank write bursts (Count)
system.mem_ctrls.dram.perBankRdBursts::7           80                       # Per bank write bursts (Count)
system.mem_ctrls.dram.perBankRdBursts::8           25                       # Per bank write bursts (Count)
system.mem_ctrls.dram.perBankRdBursts::9           46                       # Per bank write bursts (Count)
system.mem_ctrls.dram.perBankRdBursts::10           91                       # Per bank write bursts (Count)
system.mem_ctrls.dram.perBankRdBursts::11           93                       # Per bank write bursts (Count)
system.mem_ctrls.dram.perBankRdBursts::12          148                       # Per bank write bursts (Count)
system.mem_ctrls.dram.perBankRdBursts::13          118                       # Per bank write bursts (Count)
system.mem_ctrls.dram.perBankRdBursts::14           72                       # Per bank write bursts (Count)
system.mem_ctrls.dram.perBankRdBursts::15          140                       # Per bank write bursts (Count)
system.mem_ctrls.dram.perBankWrBursts::0           23                       # Per bank write bursts (Count)
system.mem_ctrls.dram.perBankWrBursts::1           40                       # Per bank write bursts (Count)
system.mem_ctrls.dram.perBankWrBursts::2           26                       # Per bank write bursts (Count)
system.mem_ctrls.dram.perBankWrBursts::3           15                       # Per bank write bursts (Count)
system.mem_ctrls.dram.perBankWrBursts::4           26                       # Per bank write bursts (Count)
system.mem_ctrls.dram.perBankWrBursts::5           44                       # Per bank write bursts (Count)
system.mem_ctrls.dram.perBankWrBursts::6           27                       # Per bank write bursts (Count)
system.mem_ctrls.dram.perBankWrBursts::7           44                       # Per bank write bursts (Count)
system.mem_ctrls.dram.perBankWrBursts::8           18                       # Per bank write bursts (Count)
system.mem_ctrls.dram.perBankWrBursts::9           34                       # Per bank write bursts (Count)
system.mem_ctrls.dram.perBankWrBursts::10           45                       # Per bank write bursts (Count)
system.mem_ctrls.dram.perBankWrBursts::11           70                       # Per bank write bursts (Count)
system.mem_ctrls.dram.perBankWrBursts::12          109                       # Per bank write bursts (Count)
system.mem_ctrls.dram.perBankWrBursts::13           47                       # Per bank write bursts (Count)
system.mem_ctrls.dram.perBankWrBursts::14           45                       # Per bank write bursts (Count)
system.mem_ctrls.dram.perBankWrBursts::15           53                       # Per bank write bursts (Count)
system.mem_ctrls.dram.totQLat                15058250                       # Total ticks spent queuing (Tick)
system.mem_ctrls.dram.totBusLat               6600000                       # Total ticks spent in databus transfers (Tick)
system.mem_ctrls.dram.totMemAccLat           39808250                       # Total ticks spent from burst creation until serviced by the DRAM (Tick)
system.mem_ctrls.dram.avgQLat                11407.77                       # Average queueing delay per DRAM burst ((Tick/Count))
system.mem_ctrls.dram.avgBusLat               5000.00                       # Average bus latency per DRAM burst ((Tick/Count))
system.mem_ctrls.dram.avgMemAccLat           30157.77                       # Average memory access latency per DRAM burst ((Tick/Count))
system.mem_ctrls.dram.readRowHits                1074                       # Number of row buffer hits during reads (Count)
system.mem_ctrls.dram.writeRowHits                575                       # Number of row buffer hits during writes (Count)
system.mem_ctrls.dram.readRowHitRate            81.36                       # Row buffer hit rate for reads (Ratio)
system.mem_ctrls.dram.writeRowHitRate           86.34                       # Row buffer hit rate for writes (Ratio)
system.mem_ctrls.dram.bytesPerActivate::samples          327                       # Bytes accessed per row activation (Byte)
system.mem_ctrls.dram.bytesPerActivate::mean   382.825688                       # Bytes accessed per row activation (Byte)
system.mem_ctrls.dram.bytesPerActivate::gmean   247.324190                       # Bytes accessed per row activation (Byte)
system.mem_ctrls.dram.bytesPerActivate::stdev   337.166818                       # Bytes accessed per row activation (Byte)
system.mem_ctrls.dram.bytesPerActivate::0-127           71     21.71%     21.71% # Bytes accessed per row activation (Byte)
system.mem_ctrls.dram.bytesPerActivate::128-255           93     28.44%     50.15% # Bytes accessed per row activation (Byte)
system.mem_ctrls.dram.bytesPerActivate::256-383           39     11.93%     62.08% # Bytes accessed per row activation (Byte)
system.mem_ctrls.dram.bytesPerActivate::384-511           21      6.42%     68.50% # Bytes accessed per row activation (Byte)
system.mem_ctrls.dram.bytesPerActivate::512-639           19      5.81%     74.31% # Bytes accessed per row activation (Byte)
system.mem_ctrls.dram.bytesPerActivate::640-767           17      5.20%     79.51% # Bytes accessed per row activation (Byte)
system.mem_ctrls.dram.bytesPerActivate::768-895           16      4.89%     84.40% # Bytes accessed per row activation (Byte)
system.mem_ctrls.dram.bytesPerActivate::896-1023           13      3.98%     88.38% # Bytes accessed per row activation (Byte)
system.mem_ctrls.dram.bytesPerActivate::1024-1151           38     11.62%    100.00% # Bytes accessed per row activation (Byte)
system.mem_ctrls.dram.bytesPerActivate::total          327                       # Bytes accessed per row activation (Byte)
system.mem_ctrls.dram.bytesRead                 84480                       # Total bytes read (Byte)
system.mem_ctrls.dram.bytesWritten              42624                       # Total bytes written (Byte)
system.mem_ctrls.dram.avgRdBW             1313.718782                       # Average DRAM read bandwidth in MiBytes/s ((Byte/Second))
system.mem_ctrls.dram.avgWrBW              662.830840                       # Average DRAM write bandwidth in MiBytes/s ((Byte/Second))
system.mem_ctrls.dram.peakBW                 12800.00                       # Theoretical peak bandwidth in MiByte/s ((Byte/Second))
system.mem_ctrls.dram.busUtil                   15.44                       # Data bus utilization in percentage (Ratio)
system.mem_ctrls.dram.busUtilRead               10.26                       # Data bus utilization in percentage for reads (Ratio)
system.mem_ctrls.dram.busUtilWrite               5.18                       # Data bus utilization in percentage for writes (Ratio)
system.mem_ctrls.dram.pageHitRate               83.03                       # Row buffer hit rate, read and write combined (Ratio)
system.mem_ctrls.dram.power_state.pwrStateResidencyTicks::UNDEFINED     64306000                       # Cumulative time (in ticks) in various power states (Tick)
system.mem_ctrls.dram.rank0.actEnergy         1063860                       # Energy for activate commands per rank (pJ) (Joule)
system.mem_ctrls.dram.rank0.preEnergy          546480                       # Energy for precharge commands per rank (pJ) (Joule)
system.mem_ctrls.dram.rank0.readEnergy        4191180                       # Energy for read commands per rank (pJ) (Joule)
system.mem_ctrls.dram.rank0.writeEnergy       1278900                       # Energy for write commands per rank (pJ) (Joule)
system.mem_ctrls.dram.rank0.refreshEnergy 4917120.000000                       # Energy for refresh commands per rank (pJ) (Joule)
system.mem_ctrls.dram.rank0.actBackEnergy     27615360                       # Energy for active background per rank (pJ) (Joule)
system.mem_ctrls.dram.rank0.preBackEnergy      1438560                       # Energy for precharge background per rank (pJ) (Joule)
system.mem_ctrls.dram.rank0.actPowerDownEnergy            0                       # Energy for active power-down per rank (pJ) (Joule)
system.mem_ctrls.dram.rank0.prePowerDownEnergy            0                       # Energy for precharge power-down per rank (pJ) (Joule)
system.mem_ctrls.dram.rank0.selfRefreshEnergy            0                       # Energy for self refresh per rank (pJ) (Joule)
system.mem_ctrls.dram.rank0.totalEnergy      41051460                       # Total energy per rank (pJ) (Joule)
system.mem_ctrls.dram.rank0.averagePower   638.376823                       # Core power per rank (mW) (Watt)
system.mem_ctrls.dram.rank0.totalIdleTime            0                       # Total Idle time Per DRAM Rank (Tick)
system.mem_ctrls.dram.rank0.pwrStateTime::IDLE      3524750                       # Time in different power states (Tick)
system.mem_ctrls.dram.rank0.pwrStateTime::REF      2080000                       # Time in different power states (Tick)
system.mem_ctrls.dram.rank0.pwrStateTime::SREF            0                       # Time in different power states (Tick)
system.mem_ctrls.dram.rank0.pwrStateTime::PRE_PDN            0                       # Time in different power states (Tick)
system.mem_ctrls.dram.rank0.pwrStateTime::ACT     58701250                       # Time in different power states (Tick)
system.mem_ctrls.dram.rank0.pwrStateTime::ACT_PDN            0                       # Time in different power states (Tick)
system.mem_ctrls.dram.rank1.actEnergy         1342320                       # Energy for activate commands per rank (pJ) (Joule)
system.mem_ctrls.dram.rank1.preEnergy          694485                       # Energy for precharge commands per rank (pJ) (Joule)
system.mem_ctrls.dram.rank1.readEnergy        5233620                       # Energy for read commands per rank (pJ) (Joule)
system.mem_ctrls.dram.rank1.writeEnergy       2197620                       # Energy for write commands per rank (pJ) (Joule)
system.mem_ctrls.dram.rank1.refreshEnergy 4917120.000000                       # Energy for refresh commands per rank (pJ) (Joule)
system.mem_ctrls.dram.rank1.actBackEnergy     28653330                       # Energy for active background per rank (pJ) (Joule)
system.mem_ctrls.dram.rank1.preBackEnergy       564480                       # Energy for precharge background per rank (pJ) (Joule)
system.mem_ctrls.dram.rank1.actPowerDownEnergy            0                       # Energy for active power-down per rank (pJ) (Joule)
system.mem_ctrls.dram.rank1.prePowerDownEnergy            0                       # Energy for precharge power-down per rank (pJ) (Joule)
system.mem_ctrls.dram.rank1.selfRefreshEnergy            0                       # Energy for self refresh per rank (pJ) (Joule)
system.mem_ctrls.dram.rank1.totalEnergy      43602975                       # Total energy per rank (pJ) (Joule)
system.mem_ctrls.dram.rank1.averagePower   678.054536                       # Core power per rank (mW) (Watt)
system.mem_ctrls.dram.rank1.totalIdleTime            0                       # Total Idle time Per DRAM Rank (Tick)
system.mem_ctrls.dram.rank1.pwrStateTime::IDLE      1234500                       # Time in different power states (Tick)
system.mem_ctrls.dram.rank1.pwrStateTime::REF      2080000                       # Time in different power states (Tick)
system.mem_ctrls.dram.rank1.pwrStateTime::SREF            0                       # Time in different power states (Tick)
system.mem_ctrls.dram.rank1.pwrStateTime::PRE_PDN            0                       # Time in different power states (Tick)
system.mem_ctrls.dram.rank1.pwrStateTime::ACT     60991500                       # Time in different power states (Tick)
system.mem_ctrls.dram.rank1.pwrStateTime::ACT_PDN            0                       # Time in different power states (Tick)
system.mem_ctrls.power_state.pwrStateResidencyTicks::UNDEFINED     64306000                       # Cumulative time (in ticks) in various power states (Tick)
system.membus.transDist::ReadResp                1115                       # Transaction distribution (Count)
system.membus.transDist::WritebackDirty           138                       # Transaction distribution (Count)
system.membus.transDist::WritebackClean           561                       # Transaction distribution (Count)
system.membus.transDist::CleanEvict               149                       # Transaction distribution (Count)
system.membus.transDist::ReadExReq                234                       # Transaction distribution (Count)
system.membus.transDist::ReadExResp               234                       # Transaction distribution (Count)
system.membus.transDist::ReadCleanReq             816                       # Transaction distribution (Count)
system.membus.transDist::ReadSharedReq            299                       # Transaction distribution (Count)
system.membus.pktCount_system.cpu.icache.mem_side_port::system.mem_ctrls.port         2193                       # Packet count per connected requestor and responder (Count)
system.membus.pktCount_system.cpu.icache.mem_side_port::total         2193                       # Packet count per connected requestor and responder (Count)
system.membus.pktCount_system.cpu.dcache.mem_side_port::system.mem_ctrls.port         1353                       # Packet count per connected requestor and responder (Count)
system.membus.pktCount_system.cpu.dcache.mem_side_port::total         1353                       # Packet count per connected requestor and responder (Count)
system.membus.pktCount::total                    3546                       # Packet count per connected requestor and responder (Count)
system.membus.pktSize_system.cpu.icache.mem_side_port::system.mem_ctrls.port        88128                       # Cumulative packet size per connected requestor and responder (Byte)
system.membus.pktSize_system.cpu.icache.mem_side_port::total        88128                       # Cumulative packet size per connected requestor and responder (Byte)
system.membus.pktSize_system.cpu.dcache.mem_side_port::system.mem_ctrls.port        42944                       # Cumulative packet size per connected requestor and responder (Byte)
system.membus.pktSize_system.cpu.dcache.mem_side_port::total        42944                       # Cumulative packet size per connected requestor and responder (Byte)
system.membus.pktSize::total                   131072                       # Cumulative packet size per connected requestor and responder (Byte)
system.membus.snoops                                0                       # Total snoops (Count)
system.membus.snoopTraffic                          0                       # Total snoop traffic (Byte)
system.membus.snoopFanout::samples               1349                       # Request fanout histogram (Count)
system.membus.snoopFanout::mean              0.001483                       # Request fanout histogram (Count)
system.membus.snoopFanout::stdev             0.038490                       # Request fanout histogram (Count)
system.membus.snoopFanout::underflows               0      0.00%      0.00% # Request fanout histogram (Count)
system.membus.snoopFanout::0                     1347     99.85%     99.85% # Request fanout histogram (Count)
system.membus.snoopFanout::1                        2      0.15%    100.00% # Request fanout histogram (Count)
system.membus.snoopFanout::2                        0      0.00%    100.00% # Request fanout histogram (Count)
system.membus.snoopFanout::3                        0      0.00%    100.00% # Request fanout histogram (Count)
system.membus.snoopFanout::4                        0      0.00%    100.00% # Request fanout histogram (Count)
system.membus.snoopFanout::overflows                0      0.00%    100.00% # Request fanout histogram (Count)
system.membus.snoopFanout::min_value                0                       # Request fanout histogram (Count)
system.membus.snoopFanout::max_value                1                       # Request fanout histogram (Count)
system.membus.snoopFanout::total                 1349                       # Request fanout histogram (Count)
system.membus.power_state.pwrStateResidencyTicks::UNDEFINED     64306000                       # Cumulative time (in ticks) in various power states (Tick)
system.membus.reqLayer2.occupancy             4993000                       # Layer occupancy (ticks) (Tick)
system.membus.reqLayer2.utilization               0.1                       # Layer utilization (Ratio)
system.membus.respLayer1.occupancy            4312000                       # Layer occupancy (ticks) (Tick)
system.membus.respLayer1.utilization              0.1                       # Layer utilization (Ratio)
system.membus.respLayer2.occupancy            2841250                       # Layer occupancy (ticks) (Tick)
system.membus.respLayer2.utilization              0.0                       # Layer utilization (Ratio)
system.membus.snoop_filter.totRequests           2197                       # Total number of requests made to the snoop filter. (Count)
system.membus.snoop_filter.hitSingleRequests          848                       # Number of requests hitting in the snoop filter with a single holder of the requested data. (Count)
system.membus.snoop_filter.hitMultiRequests            2                       # Number of requests hitting in the snoop filter with multiple (>1) holders of the requested data. (Count)
system.membus.snoop_filter.totSnoops                0                       # Total number of snoops made to the snoop filter. (Count)
system.membus.snoop_filter.hitSingleSnoops            0                       # Number of snoops hitting in the snoop filter with a single holder of the requested data. (Count)
system.membus.snoop_filter.hitMultiSnoops            0                       # Number of snoops hitting in the snoop filter with multiple (>1) holders of the requested data. (Count)
system.voltage_domain.voltage                       1                       # Voltage in Volts (Volt)
system.workload.inst.arm                            0                       # number of arm instructions executed (Count)
system.workload.inst.quiesce                        0                       # number of quiesce instructions executed (Count)

---------- End Simulation Statistics   ----------
