
---------- Begin Simulation Statistics ----------
simSeconds                                   0.000062                       # Number of seconds simulated (Second)
simTicks                                     62137000                       # Number of ticks simulated (Tick)
finalTick                                    62137000                       # Number of ticks from beginning of simulation (restored from checkpoints and never reset) (Tick)
simFreq                                  1000000000000                       # The number of ticks per simulated second ((Tick/Second))
hostSeconds                                      0.27                       # Real time elapsed on the host (Second)
hostTickRate                                232522700                       # The number of ticks simulated per host second (ticks/s) ((Tick/Second))
hostMemory                                     672728                       # Number of bytes of host memory used (Byte)
simInsts                                        17982                       # Number of instructions simulated (Count)
simOps                                          36243                       # Number of ops (including micro ops) simulated (Count)
hostInstRate                                    67261                       # Simulator instruction rate (inst/s) ((Count/Second))
hostOpRate                                     135560                       # Simulator op (including micro ops) rate (op/s) ((Count/Second))
system.clk_domain.clock                          1000                       # Clock period in ticks (Tick)
system.cpu.numCycles                            62138                       # Number of cpu cycles simulated (Cycle)
system.cpu.numWorkItemsStarted                      0                       # Number of work items this cpu started (Count)
system.cpu.numWorkItemsCompleted                    0                       # Number of work items this cpu completed (Count)
system.cpu.instsAdded                           67717                       # Number of instructions added to the IQ (excludes non-spec) (Count)
system.cpu.nonSpecInstsAdded                        1                       # Number of non-speculative instructions added to the IQ (Count)
system.cpu.instsIssued                          58090                       # Number of instructions issued (Count)
system.cpu.squashedInstsIssued                    162                       # Number of squashed instructions issued (Count)
system.cpu.squashedInstsExamined                31469                       # Number of squashed instructions iterated over during squash; mainly for profiling (Count)
system.cpu.squashedOperandsExamined             42440                       # Number of squashed operands that are examined and possibly removed from graph (Count)
system.cpu.squashedNonSpecRemoved                   1                       # Number of squashed non-spec instructions that were removed (Count)
system.cpu.numIssuedDist::samples               47415                       # Number of insts issued each cycle (Count)
system.cpu.numIssuedDist::mean               1.225140                       # Number of insts issued each cycle (Count)
system.cpu.numIssuedDist::stdev              2.057068                       # Number of insts issued each cycle (Count)
system.cpu.numIssuedDist::underflows                0      0.00%      0.00% # Number of insts issued each cycle (Count)
system.cpu.numIssuedDist::0                     30923     65.22%     65.22% # Number of insts issued each cycle (Count)
system.cpu.numIssuedDist::1                      3453      7.28%     72.50% # Number of insts issued each cycle (Count)
system.cpu.numIssuedDist::2                      2811      5.93%     78.43% # Number of insts issued each cycle (Count)
system.cpu.numIssuedDist::3                      2524      5.32%     83.75% # Number of insts issued each cycle (Count)
system.cpu.numIssuedDist::4                      2304      4.86%     88.61% # Number of insts issued each cycle (Count)
system.cpu.numIssuedDist::5                      2104      4.44%     93.05% # Number of insts issued each cycle (Count)
system.cpu.numIssuedDist::6                      1948      4.11%     97.16% # Number of insts issued each cycle (Count)
system.cpu.numIssuedDist::7                       765      1.61%     98.77% # Number of insts issued each cycle (Count)
system.cpu.numIssuedDist::8                       583      1.23%    100.00% # Number of insts issued each cycle (Count)
system.cpu.numIssuedDist::overflows                 0      0.00%    100.00% # Number of insts issued each cycle (Count)
system.cpu.numIssuedDist::min_value                 0                       # Number of insts issued each cycle (Count)
system.cpu.numIssuedDist::max_value                 8                       # Number of insts issued each cycle (Count)
system.cpu.numIssuedDist::total                 47415                       # Number of insts issued each cycle (Count)
system.cpu.statFuBusy::No_OpClass                   0      0.00%      0.00% # attempts to use FU when none available (Count)
system.cpu.statFuBusy::IntAlu                     666     84.95%     84.95% # attempts to use FU when none available (Count)
system.cpu.statFuBusy::IntMult                      0      0.00%     84.95% # attempts to use FU when none available (Count)
system.cpu.statFuBusy::IntDiv                       0      0.00%     84.95% # attempts to use FU when none available (Count)
system.cpu.statFuBusy::FloatAdd                     0      0.00%     84.95% # attempts to use FU when none available (Count)
system.cpu.statFuBusy::FloatCmp                     0      0.00%     84.95% # attempts to use FU when none available (Count)
system.cpu.statFuBusy::FloatCvt                     0      0.00%     84.95% # attempts to use FU when none available (Count)
system.cpu.statFuBusy::FloatMult                    0      0.00%     84.95% # attempts to use FU when none available (Count)
system.cpu.statFuBusy::FloatMultAcc                 0      0.00%     84.95% # attempts to use FU when none available (Count)
system.cpu.statFuBusy::FloatDiv                     0      0.00%     84.95% # attempts to use FU when none available (Count)
system.cpu.statFuBusy::FloatMisc                    0      0.00%     84.95% # attempts to use FU when none available (Count)
system.cpu.statFuBusy::FloatSqrt                    0      0.00%     84.95% # attempts to use FU when none available (Count)
system.cpu.statFuBusy::SimdAdd                      0      0.00%     84.95% # attempts to use FU when none available (Count)
system.cpu.statFuBusy::SimdAddAcc                   0      0.00%     84.95% # attempts to use FU when none available (Count)
system.cpu.statFuBusy::SimdAlu                     15      1.91%     86.86% # attempts to use FU when none available (Count)
system.cpu.statFuBusy::SimdCmp                      0      0.00%     86.86% # attempts to use FU when none available (Count)
system.cpu.statFuBusy::SimdCvt                      0      0.00%     86.86% # attempts to use FU when none available (Count)
system.cpu.statFuBusy::SimdMisc                     1      0.13%     86.99% # attempts to use FU when none available (Count)
system.cpu.statFuBusy::SimdMult                     0      0.00%     86.99% # attempts to use FU when none available (Count)
system.cpu.statFuBusy::SimdMultAcc                  0      0.00%     86.99% # attempts to use FU when none available (Count)
system.cpu.statFuBusy::SimdShift                    0      0.00%     86.99% # attempts to use FU when none available (Count)
system.cpu.statFuBusy::SimdShiftAcc                 0      0.00%     86.99% # attempts to use FU when none available (Count)
system.cpu.statFuBusy::SimdDiv                      0      0.00%     86.99% # attempts to use FU when none available (Count)
system.cpu.statFuBusy::SimdSqrt                     0      0.00%     86.99% # attempts to use FU when none available (Count)
system.cpu.statFuBusy::SimdFloatAdd                 0      0.00%     86.99% # attempts to use FU when none available (Count)
system.cpu.statFuBusy::SimdFloatAlu                 0      0.00%     86.99% # attempts to use FU when none available (Count)
system.cpu.statFuBusy::SimdFloatCmp                 0      0.00%     86.99% # attempts to use FU when none available (Count)
system.cpu.statFuBusy::SimdFloatCvt                 0      0.00%     86.99% # attempts to use FU when none available (Count)
system.cpu.statFuBusy::SimdFloatDiv                 0      0.00%     86.99% # attempts to use FU when none available (Count)
system.cpu.statFuBusy::SimdFloatMisc                0      0.00%     86.99% # attempts to use FU when none available (Count)
system.cpu.statFuBusy::SimdFloatMult                0      0.00%     86.99% # attempts to use FU when none available (Count)
system.cpu.statFuBusy::SimdFloatMultAcc             0      0.00%     86.99% # attempts to use FU when none available (Count)
system.cpu.statFuBusy::SimdFloatSqrt                0      0.00%     86.99% # attempts to use FU when none available (Count)
system.cpu.statFuBusy::SimdReduceAdd                0      0.00%     86.99% # attempts to use FU when none available (Count)
system.cpu.statFuBusy::SimdReduceAlu                0      0.00%     86.99% # attempts to use FU when none available (Count)
system.cpu.statFuBusy::SimdReduceCmp                0      0.00%     86.99% # attempts to use FU when none available (Count)
system.cpu.statFuBusy::SimdFloatReduceAdd            0      0.00%     86.99% # attempts to use FU when none available (Count)
system.cpu.statFuBusy::SimdFloatReduceCmp            0      0.00%     86.99% # attempts to use FU when none available (Count)
system.cpu.statFuBusy::SimdAes                      0      0.00%     86.99% # attempts to use FU when none available (Count)
system.cpu.statFuBusy::SimdAesMix                   0      0.00%     86.99% # attempts to use FU when none available (Count)
system.cpu.statFuBusy::SimdSha1Hash                 0      0.00%     86.99% # attempts to use FU when none available (Count)
system.cpu.statFuBusy::SimdSha1Hash2                0      0.00%     86.99% # attempts to use FU when none available (Count)
system.cpu.statFuBusy::SimdSha256Hash               0      0.00%     86.99% # attempts to use FU when none available (Count)
system.cpu.statFuBusy::SimdSha256Hash2              0      0.00%     86.99% # attempts to use FU when none available (Count)
system.cpu.statFuBusy::SimdShaSigma2                0      0.00%     86.99% # attempts to use FU when none available (Count)
system.cpu.statFuBusy::SimdShaSigma3                0      0.00%     86.99% # attempts to use FU when none available (Count)
system.cpu.statFuBusy::SimdPredAlu                  0      0.00%     86.99% # attempts to use FU when none available (Count)
system.cpu.statFuBusy::MemRead                     57      7.27%     94.26% # attempts to use FU when none available (Count)
system.cpu.statFuBusy::MemWrite                    23      2.93%     97.19% # attempts to use FU when none available (Count)
system.cpu.statFuBusy::FloatMemRead                10      1.28%     98.47% # attempts to use FU when none available (Count)
system.cpu.statFuBusy::FloatMemWrite               12      1.53%    100.00% # attempts to use FU when none available (Count)
system.cpu.statFuBusy::IprAccess                    0      0.00%    100.00% # attempts to use FU when none available (Count)
system.cpu.statFuBusy::InstPrefetch                 0      0.00%    100.00% # attempts to use FU when none available (Count)
system.cpu.statIssuedInstType_0::No_OpClass          839      1.44%      1.44% # Number of instructions issued per FU type, per thread (Count)
system.cpu.statIssuedInstType_0::IntAlu         44508     76.62%     78.06% # Number of instructions issued per FU type, per thread (Count)
system.cpu.statIssuedInstType_0::IntMult           19      0.03%     78.10% # Number of instructions issued per FU type, per thread (Count)
system.cpu.statIssuedInstType_0::IntDiv            87      0.15%     78.25% # Number of instructions issued per FU type, per thread (Count)
system.cpu.statIssuedInstType_0::FloatAdd          147      0.25%     78.50% # Number of instructions issued per FU type, per thread (Count)
system.cpu.statIssuedInstType_0::FloatCmp            0      0.00%     78.50% # Number of instructions issued per FU type, per thread (Count)
system.cpu.statIssuedInstType_0::FloatCvt            0      0.00%     78.50% # Number of instructions issued per FU type, per thread (Count)
system.cpu.statIssuedInstType_0::FloatMult            0      0.00%     78.50% # Number of instructions issued per FU type, per thread (Count)
system.cpu.statIssuedInstType_0::FloatMultAcc            0      0.00%     78.50% # Number of instructions issued per FU type, per thread (Count)
system.cpu.statIssuedInstType_0::FloatDiv            0      0.00%     78.50% # Number of instructions issued per FU type, per thread (Count)
system.cpu.statIssuedInstType_0::FloatMisc            0      0.00%     78.50% # Number of instructions issued per FU type, per thread (Count)
system.cpu.statIssuedInstType_0::FloatSqrt            0      0.00%     78.50% # Number of instructions issued per FU type, per thread (Count)
system.cpu.statIssuedInstType_0::SimdAdd          148      0.25%     78.75% # Number of instructions issued per FU type, per thread (Count)
system.cpu.statIssuedInstType_0::SimdAddAcc            0      0.00%     78.75% # Number of instructions issued per FU type, per thread (Count)
system.cpu.statIssuedInstType_0::SimdAlu          544      0.94%     79.69% # Number of instructions issued per FU type, per thread (Count)
system.cpu.statIssuedInstType_0::SimdCmp            0      0.00%     79.69% # Number of instructions issued per FU type, per thread (Count)
system.cpu.statIssuedInstType_0::SimdCvt          468      0.81%     80.50% # Number of instructions issued per FU type, per thread (Count)
system.cpu.statIssuedInstType_0::SimdMisc          500      0.86%     81.36% # Number of instructions issued per FU type, per thread (Count)
system.cpu.statIssuedInstType_0::SimdMult            0      0.00%     81.36% # Number of instructions issued per FU type, per thread (Count)
system.cpu.statIssuedInstType_0::SimdMultAcc            0      0.00%     81.36% # Number of instructions issued per FU type, per thread (Count)
system.cpu.statIssuedInstType_0::SimdShift          112      0.19%     81.55% # Number of instructions issued per FU type, per thread (Count)
system.cpu.statIssuedInstType_0::SimdShiftAcc            0      0.00%     81.55% # Number of instructions issued per FU type, per thread (Count)
system.cpu.statIssuedInstType_0::SimdDiv            0      0.00%     81.55% # Number of instructions issued per FU type, per thread (Count)
system.cpu.statIssuedInstType_0::SimdSqrt            0      0.00%     81.55% # Number of instructions issued per FU type, per thread (Count)
system.cpu.statIssuedInstType_0::SimdFloatAdd            0      0.00%     81.55% # Number of instructions issued per FU type, per thread (Count)
system.cpu.statIssuedInstType_0::SimdFloatAlu            0      0.00%     81.55% # Number of instructions issued per FU type, per thread (Count)
system.cpu.statIssuedInstType_0::SimdFloatCmp            0      0.00%     81.55% # Number of instructions issued per FU type, per thread (Count)
system.cpu.statIssuedInstType_0::SimdFloatCvt            0      0.00%     81.55% # Number of instructions issued per FU type, per thread (Count)
system.cpu.statIssuedInstType_0::SimdFloatDiv            0      0.00%     81.55% # Number of instructions issued per FU type, per thread (Count)
system.cpu.statIssuedInstType_0::SimdFloatMisc            0      0.00%     81.55% # Number of instructions issued per FU type, per thread (Count)
system.cpu.statIssuedInstType_0::SimdFloatMult            0      0.00%     81.55% # Number of instructions issued per FU type, per thread (Count)
system.cpu.statIssuedInstType_0::SimdFloatMultAcc            0      0.00%     81.55% # Number of instructions issued per FU type, per thread (Count)
system.cpu.statIssuedInstType_0::SimdFloatSqrt            0      0.00%     81.55% # Number of instructions issued per FU type, per thread (Count)
system.cpu.statIssuedInstType_0::SimdReduceAdd            0      0.00%     81.55% # Number of instructions issued per FU type, per thread (Count)
system.cpu.statIssuedInstType_0::SimdReduceAlu            0      0.00%     81.55% # Number of instructions issued per FU type, per thread (Count)
system.cpu.statIssuedInstType_0::SimdReduceCmp            0      0.00%     81.55% # Number of instructions issued per FU type, per thread (Count)
system.cpu.statIssuedInstType_0::SimdFloatReduceAdd            0      0.00%     81.55% # Number of instructions issued per FU type, per thread (Count)
system.cpu.statIssuedInstType_0::SimdFloatReduceCmp            0      0.00%     81.55% # Number of instructions issued per FU type, per thread (Count)
system.cpu.statIssuedInstType_0::SimdAes            0      0.00%     81.55% # Number of instructions issued per FU type, per thread (Count)
system.cpu.statIssuedInstType_0::SimdAesMix            0      0.00%     81.55% # Number of instructions issued per FU type, per thread (Count)
system.cpu.statIssuedInstType_0::SimdSha1Hash            0      0.00%     81.55% # Number of instructions issued per FU type, per thread (Count)
system.cpu.statIssuedInstType_0::SimdSha1Hash2            0      0.00%     81.55% # Number of instructions issued per FU type, per thread (Count)
system.cpu.statIssuedInstType_0::SimdSha256Hash            0      0.00%     81.55% # Number of instructions issued per FU type, per thread (Count)
system.cpu.statIssuedInstType_0::SimdSha256Hash2            0      0.00%     81.55% # Number of instructions issued per FU type, per thread (Count)
system.cpu.statIssuedInstType_0::SimdShaSigma2            0      0.00%     81.55% # Number of instructions issued per FU type, per thread (Count)
system.cpu.statIssuedInstType_0::SimdShaSigma3            0      0.00%     81.55% # Number of instructions issued per FU type, per thread (Count)
system.cpu.statIssuedInstType_0::SimdPredAlu            0      0.00%     81.55% # Number of instructions issued per FU type, per thread (Count)
system.cpu.statIssuedInstType_0::MemRead         6270     10.79%     92.34% # Number of instructions issued per FU type, per thread (Count)
system.cpu.statIssuedInstType_0::MemWrite         3146      5.42%     97.76% # Number of instructions issued per FU type, per thread (Count)
system.cpu.statIssuedInstType_0::FloatMemRead          815      1.40%     99.16% # Number of instructions issued per FU type, per thread (Count)
system.cpu.statIssuedInstType_0::FloatMemWrite          487      0.84%    100.00% # Number of instructions issued per FU type, per thread (Count)
system.cpu.statIssuedInstType_0::IprAccess            0      0.00%    100.00% # Number of instructions issued per FU type, per thread (Count)
system.cpu.statIssuedInstType_0::InstPrefetch            0      0.00%    100.00% # Number of instructions issued per FU type, per thread (Count)
system.cpu.statIssuedInstType_0::total          58090                       # Number of instructions issued per FU type, per thread (Count)
system.cpu.issueRate                         0.934855                       # Inst issue rate ((Count/Cycle))
system.cpu.fuBusy                                 784                       # FU busy when requested (Count)
system.cpu.fuBusyRate                        0.013496                       # FU busy rate (busy events/executed inst) ((Count/Count))
system.cpu.intInstQueueReads                   157833                       # Number of integer instruction queue reads (Count)
system.cpu.intInstQueueWrites                   92884                       # Number of integer instruction queue writes (Count)
system.cpu.intInstQueueWakeupAccesses           52230                       # Number of integer instruction queue wakeup accesses (Count)
system.cpu.fpInstQueueReads                      6708                       # Number of floating instruction queue reads (Count)
system.cpu.fpInstQueueWrites                     6341                       # Number of floating instruction queue writes (Count)
system.cpu.fpInstQueueWakeupAccesses             3023                       # Number of floating instruction queue wakeup accesses (Count)
system.cpu.vecInstQueueReads                        0                       # Number of vector instruction queue reads (Count)
system.cpu.vecInstQueueWrites                       0                       # Number of vector instruction queue writes (Count)
system.cpu.vecInstQueueWakeupAccesses               0                       # Number of vector instruction queue wakeup accesses (Count)
system.cpu.intAluAccesses                       54671                       # Number of integer alu accesses (Count)
system.cpu.fpAluAccesses                         3364                       # Number of floating point alu accesses (Count)
system.cpu.vecAluAccesses                           0                       # Number of vector alu accesses (Count)
system.cpu.numInsts                             56437                       # Number of executed instructions (Count)
system.cpu.numLoadInsts                          6752                       # Number of load instructions executed (Count)
system.cpu.numSquashedInsts                      1653                       # Number of squashed instructions skipped in execute (Count)
system.cpu.numSwp                                   0                       # Number of swp insts executed (Count)
system.cpu.numNop                                   0                       # Number of nop insts executed (Count)
system.cpu.numRefs                              10268                       # Number of memory reference insts executed (Count)
system.cpu.numBranches                           5593                       # Number of branches executed (Count)
system.cpu.numStoreInsts                         3516                       # Number of stores executed (Count)
system.cpu.numRate                           0.908253                       # Inst execution rate ((Count/Cycle))
system.cpu.timesIdled                             432                       # Number of times that the entire CPU went into an idle state and unscheduled itself (Count)
system.cpu.idleCycles                           14723                       # Total number of cycles that the CPU has spent unscheduled due to idling (Cycle)
system.cpu.committedInsts                       17982                       # Number of Instructions Simulated (Count)
system.cpu.committedOps                         36243                       # Number of Ops (including micro ops) Simulated (Count)
system.cpu.cpi                               3.455567                       # CPI: Cycles Per Instruction ((Cycle/Count))
system.cpu.totalCpi                          3.455567                       # CPI: Total CPI of All Threads ((Cycle/Count))
system.cpu.ipc                               0.289388                       # IPC: Instructions Per Cycle ((Count/Cycle))
system.cpu.totalIpc                          0.289388                       # IPC: Total IPC of All Threads ((Count/Cycle))
system.cpu.intRegfileReads                      75914                       # Number of integer regfile reads (Count)
system.cpu.intRegfileWrites                     43462                       # Number of integer regfile writes (Count)
system.cpu.fpRegfileReads                        4586                       # Number of floating regfile reads (Count)
system.cpu.fpRegfileWrites                       2386                       # Number of floating regfile writes (Count)
system.cpu.ccRegfileReads                       29523                       # number of cc regfile reads (Count)
system.cpu.ccRegfileWrites                      17119                       # number of cc regfile writes (Count)
system.cpu.miscRegfileReads                     22738                       # number of misc regfile reads (Count)
system.cpu.MemDepUnit__0.insertedLoads           7877                       # Number of loads inserted to the mem dependence unit. (Count)
system.cpu.MemDepUnit__0.insertedStores          4259                       # Number of stores inserted to the mem dependence unit. (Count)
system.cpu.MemDepUnit__0.conflictingLoads           34                       # Number of conflicting loads. (Count)
system.cpu.MemDepUnit__0.conflictingStores           28                       # Number of conflicting stores. (Count)
system.cpu.MemDepUnit__1.insertedLoads              0                       # Number of loads inserted to the mem dependence unit. (Count)
system.cpu.MemDepUnit__1.insertedStores             0                       # Number of stores inserted to the mem dependence unit. (Count)
system.cpu.MemDepUnit__1.conflictingLoads            0                       # Number of conflicting loads. (Count)
system.cpu.MemDepUnit__1.conflictingStores            0                       # Number of conflicting stores. (Count)
system.cpu.MemDepUnit__2.insertedLoads              0                       # Number of loads inserted to the mem dependence unit. (Count)
system.cpu.MemDepUnit__2.insertedStores             0                       # Number of stores inserted to the mem dependence unit. (Count)
system.cpu.MemDepUnit__2.conflictingLoads            0                       # Number of conflicting loads. (Count)
system.cpu.MemDepUnit__2.conflictingStores            0                       # Number of conflicting stores. (Count)
system.cpu.MemDepUnit__3.insertedLoads              0                       # Number of loads inserted to the mem dependence unit. (Count)
system.cpu.MemDepUnit__3.insertedStores             0                       # Number of stores inserted to the mem dependence unit. (Count)
system.cpu.MemDepUnit__3.conflictingLoads            0                       # Number of conflicting loads. (Count)
system.cpu.MemDepUnit__3.conflictingStores            0                       # Number of conflicting stores. (Count)
system.cpu.branchPred.lookups                    9541                       # Number of BP lookups (Count)
system.cpu.branchPred.condPredicted              7675                       # Number of conditional branches predicted (Count)
system.cpu.branchPred.condIncorrect              1240                       # Number of conditional branches incorrect (Count)
system.cpu.branchPred.BTBLookups                 3720                       # Number of BTB lookups (Count)
system.cpu.branchPred.BTBHits                    2644                       # Number of BTB hits (Count)
system.cpu.branchPred.BTBHitRatio            0.710753                       # BTB Hit Ratio (Ratio)
system.cpu.branchPred.RASUsed                     529                       # Number of times the RAS was used to get a target. (Count)
system.cpu.branchPred.RASIncorrect                  0                       # Number of incorrect RAS predictions. (Count)
system.cpu.branchPred.indirectLookups             235                       # Number of indirect predictor lookups. (Count)
system.cpu.branchPred.indirectHits                  8                       # Number of indirect target hits. (Count)
system.cpu.branchPred.indirectMisses              227                       # Number of indirect misses. (Count)
system.cpu.branchPred.indirectMispredicted          106                       # Number of mispredicted indirect branches. (Count)
system.cpu.commit.commitSquashedInsts           30532                       # The number of squashed insts skipped by commit (Count)
system.cpu.commit.branchMispredicts               901                       # The number of times a branch was mispredicted (Count)
system.cpu.commit.numCommittedDist::samples        42894                       # Number of insts commited each cycle (Count)
system.cpu.commit.numCommittedDist::mean     0.844943                       # Number of insts commited each cycle (Count)
system.cpu.commit.numCommittedDist::stdev     1.856507                       # Number of insts commited each cycle (Count)
system.cpu.commit.numCommittedDist::underflows            0      0.00%      0.00% # Number of insts commited each cycle (Count)
system.cpu.commit.numCommittedDist::0           31654     73.80%     73.80% # Number of insts commited each cycle (Count)
system.cpu.commit.numCommittedDist::1            3394      7.91%     81.71% # Number of insts commited each cycle (Count)
system.cpu.commit.numCommittedDist::2            2007      4.68%     86.39% # Number of insts commited each cycle (Count)
system.cpu.commit.numCommittedDist::3            2306      5.38%     91.76% # Number of insts commited each cycle (Count)
system.cpu.commit.numCommittedDist::4             998      2.33%     94.09% # Number of insts commited each cycle (Count)
system.cpu.commit.numCommittedDist::5             465      1.08%     95.17% # Number of insts commited each cycle (Count)
system.cpu.commit.numCommittedDist::6             305      0.71%     95.89% # Number of insts commited each cycle (Count)
system.cpu.commit.numCommittedDist::7             350      0.82%     96.70% # Number of insts commited each cycle (Count)
system.cpu.commit.numCommittedDist::8            1415      3.30%    100.00% # Number of insts commited each cycle (Count)
system.cpu.commit.numCommittedDist::overflows            0      0.00%    100.00% # Number of insts commited each cycle (Count)
system.cpu.commit.numCommittedDist::min_value            0                       # Number of insts commited each cycle (Count)
system.cpu.commit.numCommittedDist::max_value            8                       # Number of insts commited each cycle (Count)
system.cpu.commit.numCommittedDist::total        42894                       # Number of insts commited each cycle (Count)
system.cpu.commit.instsCommitted                17982                       # Number of instructions committed (Count)
system.cpu.commit.opsCommitted                  36243                       # Number of ops (including micro ops) committed (Count)
system.cpu.commit.memRefs                        6602                       # Number of memory references committed (Count)
system.cpu.commit.loads                          3942                       # Number of loads committed (Count)
system.cpu.commit.amos                              0                       # Number of atomic instructions committed (Count)
system.cpu.commit.membars                           0                       # Number of memory barriers committed (Count)
system.cpu.commit.branches                       4146                       # Number of branches committed (Count)
system.cpu.commit.vectorInstructions                0                       # Number of committed Vector instructions. (Count)
system.cpu.commit.floating                       1899                       # Number of committed floating point instructions. (Count)
system.cpu.commit.integer                       34443                       # Number of committed integer instructions. (Count)
system.cpu.commit.functionCalls                   245                       # Number of function calls committed. (Count)
system.cpu.commit.committedInstType_0::No_OpClass          392      1.08%      1.08% # Class of committed instruction (Count)
system.cpu.commit.committedInstType_0::IntAlu        28072     77.45%     78.54% # Class of committed instruction (Count)
system.cpu.commit.committedInstType_0::IntMult           14      0.04%     78.58% # Class of committed instruction (Count)
system.cpu.commit.committedInstType_0::IntDiv           45      0.12%     78.70% # Class of committed instruction (Count)
system.cpu.commit.committedInstType_0::FloatAdd           64      0.18%     78.88% # Class of committed instruction (Count)
system.cpu.commit.committedInstType_0::FloatCmp            0      0.00%     78.88% # Class of committed instruction (Count)
system.cpu.commit.committedInstType_0::FloatCvt            0      0.00%     78.88% # Class of committed instruction (Count)
system.cpu.commit.committedInstType_0::FloatMult            0      0.00%     78.88% # Class of committed instruction (Count)
system.cpu.commit.committedInstType_0::FloatMultAcc            0      0.00%     78.88% # Class of committed instruction (Count)
system.cpu.commit.committedInstType_0::FloatDiv            0      0.00%     78.88% # Class of committed instruction (Count)
system.cpu.commit.committedInstType_0::FloatMisc            0      0.00%     78.88% # Class of committed instruction (Count)
system.cpu.commit.committedInstType_0::FloatSqrt            0      0.00%     78.88% # Class of committed instruction (Count)
system.cpu.commit.committedInstType_0::SimdAdd           94      0.26%     79.14% # Class of committed instruction (Count)
system.cpu.commit.committedInstType_0::SimdAddAcc            0      0.00%     79.14% # Class of committed instruction (Count)
system.cpu.commit.committedInstType_0::SimdAlu          286      0.79%     79.92% # Class of committed instruction (Count)
system.cpu.commit.committedInstType_0::SimdCmp            0      0.00%     79.92% # Class of committed instruction (Count)
system.cpu.commit.committedInstType_0::SimdCvt          280      0.77%     80.70% # Class of committed instruction (Count)
system.cpu.commit.committedInstType_0::SimdMisc          347      0.96%     81.65% # Class of committed instruction (Count)
system.cpu.commit.committedInstType_0::SimdMult            0      0.00%     81.65% # Class of committed instruction (Count)
system.cpu.commit.committedInstType_0::SimdMultAcc            0      0.00%     81.65% # Class of committed instruction (Count)
system.cpu.commit.committedInstType_0::SimdShift           47      0.13%     81.78% # Class of committed instruction (Count)
system.cpu.commit.committedInstType_0::SimdShiftAcc            0      0.00%     81.78% # Class of committed instruction (Count)
system.cpu.commit.committedInstType_0::SimdDiv            0      0.00%     81.78% # Class of committed instruction (Count)
system.cpu.commit.committedInstType_0::SimdSqrt            0      0.00%     81.78% # Class of committed instruction (Count)
system.cpu.commit.committedInstType_0::SimdFloatAdd            0      0.00%     81.78% # Class of committed instruction (Count)
system.cpu.commit.committedInstType_0::SimdFloatAlu            0      0.00%     81.78% # Class of committed instruction (Count)
system.cpu.commit.committedInstType_0::SimdFloatCmp            0      0.00%     81.78% # Class of committed instruction (Count)
system.cpu.commit.committedInstType_0::SimdFloatCvt            0      0.00%     81.78% # Class of committed instruction (Count)
system.cpu.commit.committedInstType_0::SimdFloatDiv            0      0.00%     81.78% # Class of committed instruction (Count)
system.cpu.commit.committedInstType_0::SimdFloatMisc            0      0.00%     81.78% # Class of committed instruction (Count)
system.cpu.commit.committedInstType_0::SimdFloatMult            0      0.00%     81.78% # Class of committed instruction (Count)
system.cpu.commit.committedInstType_0::SimdFloatMultAcc            0      0.00%     81.78% # Class of committed instruction (Count)
system.cpu.commit.committedInstType_0::SimdFloatSqrt            0      0.00%     81.78% # Class of committed instruction (Count)
system.cpu.commit.committedInstType_0::SimdReduceAdd            0      0.00%     81.78% # Class of committed instruction (Count)
system.cpu.commit.committedInstType_0::SimdReduceAlu            0      0.00%     81.78% # Class of committed instruction (Count)
system.cpu.commit.committedInstType_0::SimdReduceCmp            0      0.00%     81.78% # Class of committed instruction (Count)
system.cpu.commit.committedInstType_0::SimdFloatReduceAdd            0      0.00%     81.78% # Class of committed instruction (Count)
system.cpu.commit.committedInstType_0::SimdFloatReduceCmp            0      0.00%     81.78% # Class of committed instruction (Count)
system.cpu.commit.committedInstType_0::SimdAes            0      0.00%     81.78% # Class of committed instruction (Count)
system.cpu.commit.committedInstType_0::SimdAesMix            0      0.00%     81.78% # Class of committed instruction (Count)
system.cpu.commit.committedInstType_0::SimdSha1Hash            0      0.00%     81.78% # Class of committed instruction (Count)
system.cpu.commit.committedInstType_0::SimdSha1Hash2            0      0.00%     81.78% # Class of committed instruction (Count)
system.cpu.commit.committedInstType_0::SimdSha256Hash            0      0.00%     81.78% # Class of committed instruction (Count)
system.cpu.commit.committedInstType_0::SimdSha256Hash2            0      0.00%     81.78% # Class of committed instruction (Count)
system.cpu.commit.committedInstType_0::SimdShaSigma2            0      0.00%     81.78% # Class of committed instruction (Count)
system.cpu.commit.committedInstType_0::SimdShaSigma3            0      0.00%     81.78% # Class of committed instruction (Count)
system.cpu.commit.committedInstType_0::SimdPredAlu            0      0.00%     81.78% # Class of committed instruction (Count)
system.cpu.commit.committedInstType_0::MemRead         3616      9.98%     91.76% # Class of committed instruction (Count)
system.cpu.commit.committedInstType_0::MemWrite         2277      6.28%     98.04% # Class of committed instruction (Count)
system.cpu.commit.committedInstType_0::FloatMemRead          326      0.90%     98.94% # Class of committed instruction (Count)
system.cpu.commit.committedInstType_0::FloatMemWrite          383      1.06%    100.00% # Class of committed instruction (Count)
system.cpu.commit.committedInstType_0::IprAccess            0      0.00%    100.00% # Class of committed instruction (Count)
system.cpu.commit.committedInstType_0::InstPrefetch            0      0.00%    100.00% # Class of committed instruction (Count)
system.cpu.commit.committedInstType_0::total        36243                       # Class of committed instruction (Count)
system.cpu.commit.commitEligibleSamples          1415                       # number cycles where commit BW limit reached (Cycle)
system.cpu.dcache.demandHits::cpu.data           8100                       # number of demand (read+write) hits (Count)
system.cpu.dcache.demandHits::total              8100                       # number of demand (read+write) hits (Count)
system.cpu.dcache.overallHits::cpu.data          8100                       # number of overall hits (Count)
system.cpu.dcache.overallHits::total             8100                       # number of overall hits (Count)
system.cpu.dcache.demandMisses::cpu.data          849                       # number of demand (read+write) misses (Count)
system.cpu.dcache.demandMisses::total             849                       # number of demand (read+write) misses (Count)
system.cpu.dcache.overallMisses::cpu.data          849                       # number of overall misses (Count)
system.cpu.dcache.overallMisses::total            849                       # number of overall misses (Count)
system.cpu.dcache.demandMissLatency::cpu.data     47463000                       # number of demand (read+write) miss ticks (Tick)
system.cpu.dcache.demandMissLatency::total     47463000                       # number of demand (read+write) miss ticks (Tick)
system.cpu.dcache.overallMissLatency::cpu.data     47463000                       # number of overall miss ticks (Tick)
system.cpu.dcache.overallMissLatency::total     47463000                       # number of overall miss ticks (Tick)
system.cpu.dcache.demandAccesses::cpu.data         8949                       # number of demand (read+write) accesses (Count)
system.cpu.dcache.demandAccesses::total          8949                       # number of demand (read+write) accesses (Count)
system.cpu.dcache.overallAccesses::cpu.data         8949                       # number of overall (read+write) accesses (Count)
system.cpu.dcache.overallAccesses::total         8949                       # number of overall (read+write) accesses (Count)
system.cpu.dcache.demandMissRate::cpu.data     0.094871                       # miss rate for demand accesses (Ratio)
system.cpu.dcache.demandMissRate::total      0.094871                       # miss rate for demand accesses (Ratio)
system.cpu.dcache.overallMissRate::cpu.data     0.094871                       # miss rate for overall accesses (Ratio)
system.cpu.dcache.overallMissRate::total     0.094871                       # miss rate for overall accesses (Ratio)
system.cpu.dcache.demandAvgMissLatency::cpu.data 55904.593640                       # average overall miss latency ((Cycle/Count))
system.cpu.dcache.demandAvgMissLatency::total 55904.593640                       # average overall miss latency ((Cycle/Count))
system.cpu.dcache.overallAvgMissLatency::cpu.data 55904.593640                       # average overall miss latency ((Cycle/Count))
system.cpu.dcache.overallAvgMissLatency::total 55904.593640                       # average overall miss latency ((Cycle/Count))
system.cpu.dcache.blockedCycles::no_mshrs          361                       # number of cycles access was blocked (Cycle)
system.cpu.dcache.blockedCycles::no_targets            0                       # number of cycles access was blocked (Cycle)
system.cpu.dcache.blockedCauses::no_mshrs           13                       # number of times access was blocked (Count)
system.cpu.dcache.blockedCauses::no_targets            0                       # number of times access was blocked (Count)
system.cpu.dcache.avgBlocked::no_mshrs      27.769231                       # average number of cycles each access was blocked ((Cycle/Count))
system.cpu.dcache.avgBlocked::no_targets          nan                       # average number of cycles each access was blocked ((Cycle/Count))
system.cpu.dcache.writebacks::writebacks           97                       # number of writebacks (Count)
system.cpu.dcache.writebacks::total                97                       # number of writebacks (Count)
system.cpu.dcache.demandMshrHits::cpu.data          369                       # number of demand (read+write) MSHR hits (Count)
system.cpu.dcache.demandMshrHits::total           369                       # number of demand (read+write) MSHR hits (Count)
system.cpu.dcache.overallMshrHits::cpu.data          369                       # number of overall MSHR hits (Count)
system.cpu.dcache.overallMshrHits::total          369                       # number of overall MSHR hits (Count)
system.cpu.dcache.demandMshrMisses::cpu.data          480                       # number of demand (read+write) MSHR misses (Count)
system.cpu.dcache.demandMshrMisses::total          480                       # number of demand (read+write) MSHR misses (Count)
system.cpu.dcache.overallMshrMisses::cpu.data          480                       # number of overall MSHR misses (Count)
system.cpu.dcache.overallMshrMisses::total          480                       # number of overall MSHR misses (Count)
system.cpu.dcache.demandMshrMissLatency::cpu.data     28925000                       # number of demand (read+write) MSHR miss ticks (Tick)
system.cpu.dcache.demandMshrMissLatency::total     28925000                       # number of demand (read+write) MSHR miss ticks (Tick)
system.cpu.dcache.overallMshrMissLatency::cpu.data     28925000                       # number of overall MSHR miss ticks (Tick)
system.cpu.dcache.overallMshrMissLatency::total     28925000                       # number of overall MSHR miss ticks (Tick)
system.cpu.dcache.demandMshrMissRate::cpu.data     0.053637                       # mshr miss ratio for demand accesses (Ratio)
system.cpu.dcache.demandMshrMissRate::total     0.053637                       # mshr miss ratio for demand accesses (Ratio)
system.cpu.dcache.overallMshrMissRate::cpu.data     0.053637                       # mshr miss ratio for overall accesses (Ratio)
system.cpu.dcache.overallMshrMissRate::total     0.053637                       # mshr miss ratio for overall accesses (Ratio)
system.cpu.dcache.demandAvgMshrMissLatency::cpu.data 60260.416667                       # average overall mshr miss latency ((Cycle/Count))
system.cpu.dcache.demandAvgMshrMissLatency::total 60260.416667                       # average overall mshr miss latency ((Cycle/Count))
system.cpu.dcache.overallAvgMshrMissLatency::cpu.data 60260.416667                       # average overall mshr miss latency ((Cycle/Count))
system.cpu.dcache.overallAvgMshrMissLatency::total 60260.416667                       # average overall mshr miss latency ((Cycle/Count))
system.cpu.dcache.replacements                    224                       # number of replacements (Count)
system.cpu.dcache.ReadReq.hits::cpu.data         5674                       # number of ReadReq hits (Count)
system.cpu.dcache.ReadReq.hits::total            5674                       # number of ReadReq hits (Count)
system.cpu.dcache.ReadReq.misses::cpu.data          614                       # number of ReadReq misses (Count)
system.cpu.dcache.ReadReq.misses::total           614                       # number of ReadReq misses (Count)
system.cpu.dcache.ReadReq.missLatency::cpu.data     33012000                       # number of ReadReq miss ticks (Tick)
system.cpu.dcache.ReadReq.missLatency::total     33012000                       # number of ReadReq miss ticks (Tick)
system.cpu.dcache.ReadReq.accesses::cpu.data         6288                       # number of ReadReq accesses(hits+misses) (Count)
system.cpu.dcache.ReadReq.accesses::total         6288                       # number of ReadReq accesses(hits+misses) (Count)
system.cpu.dcache.ReadReq.missRate::cpu.data     0.097646                       # miss rate for ReadReq accesses (Ratio)
system.cpu.dcache.ReadReq.missRate::total     0.097646                       # miss rate for ReadReq accesses (Ratio)
system.cpu.dcache.ReadReq.avgMissLatency::cpu.data 53765.472313                       # average ReadReq miss latency ((Tick/Count))
system.cpu.dcache.ReadReq.avgMissLatency::total 53765.472313                       # average ReadReq miss latency ((Tick/Count))
system.cpu.dcache.ReadReq.mshrHits::cpu.data          365                       # number of ReadReq MSHR hits (Count)
system.cpu.dcache.ReadReq.mshrHits::total          365                       # number of ReadReq MSHR hits (Count)
system.cpu.dcache.ReadReq.mshrMisses::cpu.data          249                       # number of ReadReq MSHR misses (Count)
system.cpu.dcache.ReadReq.mshrMisses::total          249                       # number of ReadReq MSHR misses (Count)
system.cpu.dcache.ReadReq.mshrMissLatency::cpu.data     15102000                       # number of ReadReq MSHR miss ticks (Tick)
system.cpu.dcache.ReadReq.mshrMissLatency::total     15102000                       # number of ReadReq MSHR miss ticks (Tick)
system.cpu.dcache.ReadReq.mshrMissRate::cpu.data     0.039599                       # mshr miss rate for ReadReq accesses (Ratio)
system.cpu.dcache.ReadReq.mshrMissRate::total     0.039599                       # mshr miss rate for ReadReq accesses (Ratio)
system.cpu.dcache.ReadReq.avgMshrMissLatency::cpu.data 60650.602410                       # average ReadReq mshr miss latency ((Tick/Count))
system.cpu.dcache.ReadReq.avgMshrMissLatency::total 60650.602410                       # average ReadReq mshr miss latency ((Tick/Count))
system.cpu.dcache.WriteReq.hits::cpu.data         2426                       # number of WriteReq hits (Count)
system.cpu.dcache.WriteReq.hits::total           2426                       # number of WriteReq hits (Count)
system.cpu.dcache.WriteReq.misses::cpu.data          235                       # number of WriteReq misses (Count)
system.cpu.dcache.WriteReq.misses::total          235                       # number of WriteReq misses (Count)
system.cpu.dcache.WriteReq.missLatency::cpu.data     14451000                       # number of WriteReq miss ticks (Tick)
system.cpu.dcache.WriteReq.missLatency::total     14451000                       # number of WriteReq miss ticks (Tick)
system.cpu.dcache.WriteReq.accesses::cpu.data         2661                       # number of WriteReq accesses(hits+misses) (Count)
system.cpu.dcache.WriteReq.accesses::total         2661                       # number of WriteReq accesses(hits+misses) (Count)
system.cpu.dcache.WriteReq.missRate::cpu.data     0.088313                       # miss rate for WriteReq accesses (Ratio)
system.cpu.dcache.WriteReq.missRate::total     0.088313                       # miss rate for WriteReq accesses (Ratio)
system.cpu.dcache.WriteReq.avgMissLatency::cpu.data 61493.617021                       # average WriteReq miss latency ((Tick/Count))
system.cpu.dcache.WriteReq.avgMissLatency::total 61493.617021                       # average WriteReq miss latency ((Tick/Count))
system.cpu.dcache.WriteReq.mshrHits::cpu.data            4                       # number of WriteReq MSHR hits (Count)
system.cpu.dcache.WriteReq.mshrHits::total            4                       # number of WriteReq MSHR hits (Count)
system.cpu.dcache.WriteReq.mshrMisses::cpu.data          231                       # number of WriteReq MSHR misses (Count)
system.cpu.dcache.WriteReq.mshrMisses::total          231                       # number of WriteReq MSHR misses (Count)
system.cpu.dcache.WriteReq.mshrMissLatency::cpu.data     13823000                       # number of WriteReq MSHR miss ticks (Tick)
system.cpu.dcache.WriteReq.mshrMissLatency::total     13823000                       # number of WriteReq MSHR miss ticks (Tick)
system.cpu.dcache.WriteReq.mshrMissRate::cpu.data     0.086809                       # mshr miss rate for WriteReq accesses (Ratio)
system.cpu.dcache.WriteReq.mshrMissRate::total     0.086809                       # mshr miss rate for WriteReq accesses (Ratio)
system.cpu.dcache.WriteReq.avgMshrMissLatency::cpu.data 59839.826840                       # average WriteReq mshr miss latency ((Tick/Count))
system.cpu.dcache.WriteReq.avgMshrMissLatency::total 59839.826840                       # average WriteReq mshr miss latency ((Tick/Count))
system.cpu.dcache.power_state.pwrStateResidencyTicks::UNDEFINED     62137000                       # Cumulative time (in ticks) in various power states (Tick)
system.cpu.dcache.tags.tagsInUse           197.730258                       # Average ticks per tags in use ((Tick/Count))
system.cpu.dcache.tags.totalRefs                 8580                       # Total number of references to valid blocks. (Count)
system.cpu.dcache.tags.sampledRefs                480                       # Sample count of references to valid blocks. (Count)
system.cpu.dcache.tags.avgRefs              17.875000                       # Average number of references to valid blocks. ((Count/Count))
system.cpu.dcache.tags.warmupTick              155000                       # The tick when the warmup percentage was hit. (Tick)
system.cpu.dcache.tags.occupancies::cpu.data   197.730258                       # Average occupied blocks per tick, per requestor ((Count/Tick))
system.cpu.dcache.tags.avgOccs::cpu.data     0.772384                       # Average percentage of cache occupancy ((Ratio/Tick))
system.cpu.dcache.tags.avgOccs::total        0.772384                       # Average percentage of cache occupancy ((Ratio/Tick))
system.cpu.dcache.tags.occupanciesTaskId::1024          256                       # Occupied blocks per task id (Count)
system.cpu.dcache.tags.ageTaskId_1024::0           79                       # Occupied blocks per task id, per block age (Count)
system.cpu.dcache.tags.ageTaskId_1024::1          177                       # Occupied blocks per task id, per block age (Count)
system.cpu.dcache.tags.ratioOccsTaskId::1024            1                       # Ratio of occupied blocks and all blocks, per task id (Ratio)
system.cpu.dcache.tags.tagAccesses             143664                       # Number of tag accesses (Count)
system.cpu.dcache.tags.dataAccesses            143664                       # Number of data accesses (Count)
system.cpu.dcache.tags.power_state.pwrStateResidencyTicks::UNDEFINED     62137000                       # Cumulative time (in ticks) in various power states (Tick)
system.cpu.decode.idleCycles                    22754                       # Number of cycles decode is idle (Cycle)
system.cpu.decode.blockedCycles                 12363                       # Number of cycles decode is blocked (Cycle)
system.cpu.decode.runCycles                     10025                       # Number of cycles decode is running (Cycle)
system.cpu.decode.unblockCycles                  1295                       # Number of cycles decode is unblocking (Cycle)
system.cpu.decode.squashCycles                    978                       # Number of cycles decode is squashing (Cycle)
system.cpu.decode.branchResolved                 2741                       # Number of times decode resolved a branch (Count)
system.cpu.decode.branchMispred                   349                       # Number of times decode detected a branch misprediction (Count)
system.cpu.decode.decodedInsts                  76049                       # Number of instructions handled by decode (Count)
system.cpu.decode.squashedInsts                  1675                       # Number of squashed instructions handled by decode (Count)
system.cpu.dtb_walker_cache.blockedCycles::no_mshrs            0                       # number of cycles access was blocked (Cycle)
system.cpu.dtb_walker_cache.blockedCycles::no_targets            0                       # number of cycles access was blocked (Cycle)
system.cpu.dtb_walker_cache.blockedCauses::no_mshrs            0                       # number of times access was blocked (Count)
system.cpu.dtb_walker_cache.blockedCauses::no_targets            0                       # number of times access was blocked (Count)
system.cpu.dtb_walker_cache.avgBlocked::no_mshrs          nan                       # average number of cycles each access was blocked ((Cycle/Count))
system.cpu.dtb_walker_cache.avgBlocked::no_targets          nan                       # average number of cycles each access was blocked ((Cycle/Count))
system.cpu.dtb_walker_cache.replacements            0                       # number of replacements (Count)
system.cpu.dtb_walker_cache.power_state.pwrStateResidencyTicks::UNDEFINED     62137000                       # Cumulative time (in ticks) in various power states (Tick)
system.cpu.dtb_walker_cache.tags.tagsInUse            0                       # Average ticks per tags in use ((Tick/Count))
system.cpu.dtb_walker_cache.tags.totalRefs            0                       # Total number of references to valid blocks. (Count)
system.cpu.dtb_walker_cache.tags.sampledRefs            0                       # Sample count of references to valid blocks. (Count)
system.cpu.dtb_walker_cache.tags.avgRefs          nan                       # Average number of references to valid blocks. ((Count/Count))
system.cpu.dtb_walker_cache.tags.warmupTick            0                       # The tick when the warmup percentage was hit. (Tick)
system.cpu.dtb_walker_cache.tags.tagAccesses            0                       # Number of tag accesses (Count)
system.cpu.dtb_walker_cache.tags.dataAccesses            0                       # Number of data accesses (Count)
system.cpu.dtb_walker_cache.tags.power_state.pwrStateResidencyTicks::UNDEFINED     62137000                       # Cumulative time (in ticks) in various power states (Tick)
system.cpu.fetch.icacheStallCycles              24518                       # Number of cycles fetch is stalled on an Icache miss (Cycle)
system.cpu.fetch.insts                          43215                       # Number of instructions fetch has processed (Count)
system.cpu.fetch.branches                        9541                       # Number of branches that fetch encountered (Count)
system.cpu.fetch.predictedBranches               3181                       # Number of branches that fetch has predicted taken (Count)
system.cpu.fetch.cycles                         21578                       # Number of cycles fetch has run and was not squashing or blocked (Cycle)
system.cpu.fetch.squashCycles                    2634                       # Number of cycles fetch has spent squashing (Cycle)
system.cpu.fetch.pendingQuiesceStallCycles            2                       # Number of stall cycles due to pending quiesce instructions (Cycle)
system.cpu.fetch.cacheLines                      5929                       # Number of cache lines fetched (Count)
system.cpu.fetch.icacheSquashes                   696                       # Number of outstanding Icache misses that were squashed (Count)
system.cpu.fetch.nisnDist::samples              47415                       # Number of instructions fetched each cycle (Total) (Count)
system.cpu.fetch.nisnDist::mean              1.779795                       # Number of instructions fetched each cycle (Total) (Count)
system.cpu.fetch.nisnDist::stdev             3.120618                       # Number of instructions fetched each cycle (Total) (Count)
system.cpu.fetch.nisnDist::underflows               0      0.00%      0.00% # Number of instructions fetched each cycle (Total) (Count)
system.cpu.fetch.nisnDist::0                    34420     72.59%     72.59% # Number of instructions fetched each cycle (Total) (Count)
system.cpu.fetch.nisnDist::1                      539      1.14%     73.73% # Number of instructions fetched each cycle (Total) (Count)
system.cpu.fetch.nisnDist::2                      701      1.48%     75.21% # Number of instructions fetched each cycle (Total) (Count)
system.cpu.fetch.nisnDist::3                      662      1.40%     76.60% # Number of instructions fetched each cycle (Total) (Count)
system.cpu.fetch.nisnDist::4                      883      1.86%     78.47% # Number of instructions fetched each cycle (Total) (Count)
system.cpu.fetch.nisnDist::5                      745      1.57%     80.04% # Number of instructions fetched each cycle (Total) (Count)
system.cpu.fetch.nisnDist::6                      918      1.94%     81.97% # Number of instructions fetched each cycle (Total) (Count)
system.cpu.fetch.nisnDist::7                      679      1.43%     83.41% # Number of instructions fetched each cycle (Total) (Count)
system.cpu.fetch.nisnDist::8                     7868     16.59%    100.00% # Number of instructions fetched each cycle (Total) (Count)
system.cpu.fetch.nisnDist::overflows                0      0.00%    100.00% # Number of instructions fetched each cycle (Total) (Count)
system.cpu.fetch.nisnDist::min_value                0                       # Number of instructions fetched each cycle (Total) (Count)
system.cpu.fetch.nisnDist::max_value                8                       # Number of instructions fetched each cycle (Total) (Count)
system.cpu.fetch.nisnDist::total                47415                       # Number of instructions fetched each cycle (Total) (Count)
system.cpu.fetch.branchRate                  0.153545                       # Number of branch fetches per cycle (Ratio)
system.cpu.fetch.rate                        0.695468                       # Number of inst fetches per cycle ((Count/Cycle))
system.cpu.icache.demandHits::cpu.inst           4862                       # number of demand (read+write) hits (Count)
system.cpu.icache.demandHits::total              4862                       # number of demand (read+write) hits (Count)
system.cpu.icache.overallHits::cpu.inst          4862                       # number of overall hits (Count)
system.cpu.icache.overallHits::total             4862                       # number of overall hits (Count)
system.cpu.icache.demandMisses::cpu.inst         1067                       # number of demand (read+write) misses (Count)
system.cpu.icache.demandMisses::total            1067                       # number of demand (read+write) misses (Count)
system.cpu.icache.overallMisses::cpu.inst         1067                       # number of overall misses (Count)
system.cpu.icache.overallMisses::total           1067                       # number of overall misses (Count)
system.cpu.icache.demandMissLatency::cpu.inst     60012000                       # number of demand (read+write) miss ticks (Tick)
system.cpu.icache.demandMissLatency::total     60012000                       # number of demand (read+write) miss ticks (Tick)
system.cpu.icache.overallMissLatency::cpu.inst     60012000                       # number of overall miss ticks (Tick)
system.cpu.icache.overallMissLatency::total     60012000                       # number of overall miss ticks (Tick)
system.cpu.icache.demandAccesses::cpu.inst         5929                       # number of demand (read+write) accesses (Count)
system.cpu.icache.demandAccesses::total          5929                       # number of demand (read+write) accesses (Count)
system.cpu.icache.overallAccesses::cpu.inst         5929                       # number of overall (read+write) accesses (Count)
system.cpu.icache.overallAccesses::total         5929                       # number of overall (read+write) accesses (Count)
system.cpu.icache.demandMissRate::cpu.inst     0.179963                       # miss rate for demand accesses (Ratio)
system.cpu.icache.demandMissRate::total      0.179963                       # miss rate for demand accesses (Ratio)
system.cpu.icache.overallMissRate::cpu.inst     0.179963                       # miss rate for overall accesses (Ratio)
system.cpu.icache.overallMissRate::total     0.179963                       # miss rate for overall accesses (Ratio)
system.cpu.icache.demandAvgMissLatency::cpu.inst 56243.673852                       # average overall miss latency ((Cycle/Count))
system.cpu.icache.demandAvgMissLatency::total 56243.673852                       # average overall miss latency ((Cycle/Count))
system.cpu.icache.overallAvgMissLatency::cpu.inst 56243.673852                       # average overall miss latency ((Cycle/Count))
system.cpu.icache.overallAvgMissLatency::total 56243.673852                       # average overall miss latency ((Cycle/Count))
system.cpu.icache.blockedCycles::no_mshrs           43                       # number of cycles access was blocked (Cycle)
system.cpu.icache.blockedCycles::no_targets            0                       # number of cycles access was blocked (Cycle)
system.cpu.icache.blockedCauses::no_mshrs            2                       # number of times access was blocked (Count)
system.cpu.icache.blockedCauses::no_targets            0                       # number of times access was blocked (Count)
system.cpu.icache.avgBlocked::no_mshrs      21.500000                       # average number of cycles each access was blocked ((Cycle/Count))
system.cpu.icache.avgBlocked::no_targets          nan                       # average number of cycles each access was blocked ((Cycle/Count))
system.cpu.icache.writebacks::writebacks          551                       # number of writebacks (Count)
system.cpu.icache.writebacks::total               551                       # number of writebacks (Count)
system.cpu.icache.demandMshrHits::cpu.inst          261                       # number of demand (read+write) MSHR hits (Count)
system.cpu.icache.demandMshrHits::total           261                       # number of demand (read+write) MSHR hits (Count)
system.cpu.icache.overallMshrHits::cpu.inst          261                       # number of overall MSHR hits (Count)
system.cpu.icache.overallMshrHits::total          261                       # number of overall MSHR hits (Count)
system.cpu.icache.demandMshrMisses::cpu.inst          806                       # number of demand (read+write) MSHR misses (Count)
system.cpu.icache.demandMshrMisses::total          806                       # number of demand (read+write) MSHR misses (Count)
system.cpu.icache.overallMshrMisses::cpu.inst          806                       # number of overall MSHR misses (Count)
system.cpu.icache.overallMshrMisses::total          806                       # number of overall MSHR misses (Count)
system.cpu.icache.demandMshrMissLatency::cpu.inst     48190000                       # number of demand (read+write) MSHR miss ticks (Tick)
system.cpu.icache.demandMshrMissLatency::total     48190000                       # number of demand (read+write) MSHR miss ticks (Tick)
system.cpu.icache.overallMshrMissLatency::cpu.inst     48190000                       # number of overall MSHR miss ticks (Tick)
system.cpu.icache.overallMshrMissLatency::total     48190000                       # number of overall MSHR miss ticks (Tick)
system.cpu.icache.demandMshrMissRate::cpu.inst     0.135942                       # mshr miss ratio for demand accesses (Ratio)
system.cpu.icache.demandMshrMissRate::total     0.135942                       # mshr miss ratio for demand accesses (Ratio)
system.cpu.icache.overallMshrMissRate::cpu.inst     0.135942                       # mshr miss ratio for overall accesses (Ratio)
system.cpu.icache.overallMshrMissRate::total     0.135942                       # mshr miss ratio for overall accesses (Ratio)
system.cpu.icache.demandAvgMshrMissLatency::cpu.inst 59789.081886                       # average overall mshr miss latency ((Cycle/Count))
system.cpu.icache.demandAvgMshrMissLatency::total 59789.081886                       # average overall mshr miss latency ((Cycle/Count))
system.cpu.icache.overallAvgMshrMissLatency::cpu.inst 59789.081886                       # average overall mshr miss latency ((Cycle/Count))
system.cpu.icache.overallAvgMshrMissLatency::total 59789.081886                       # average overall mshr miss latency ((Cycle/Count))
system.cpu.icache.replacements                    551                       # number of replacements (Count)
system.cpu.icache.ReadReq.hits::cpu.inst         4862                       # number of ReadReq hits (Count)
system.cpu.icache.ReadReq.hits::total            4862                       # number of ReadReq hits (Count)
system.cpu.icache.ReadReq.misses::cpu.inst         1067                       # number of ReadReq misses (Count)
system.cpu.icache.ReadReq.misses::total          1067                       # number of ReadReq misses (Count)
system.cpu.icache.ReadReq.missLatency::cpu.inst     60012000                       # number of ReadReq miss ticks (Tick)
system.cpu.icache.ReadReq.missLatency::total     60012000                       # number of ReadReq miss ticks (Tick)
system.cpu.icache.ReadReq.accesses::cpu.inst         5929                       # number of ReadReq accesses(hits+misses) (Count)
system.cpu.icache.ReadReq.accesses::total         5929                       # number of ReadReq accesses(hits+misses) (Count)
system.cpu.icache.ReadReq.missRate::cpu.inst     0.179963                       # miss rate for ReadReq accesses (Ratio)
system.cpu.icache.ReadReq.missRate::total     0.179963                       # miss rate for ReadReq accesses (Ratio)
system.cpu.icache.ReadReq.avgMissLatency::cpu.inst 56243.673852                       # average ReadReq miss latency ((Tick/Count))
system.cpu.icache.ReadReq.avgMissLatency::total 56243.673852                       # average ReadReq miss latency ((Tick/Count))
system.cpu.icache.ReadReq.mshrHits::cpu.inst          261                       # number of ReadReq MSHR hits (Count)
system.cpu.icache.ReadReq.mshrHits::total          261                       # number of ReadReq MSHR hits (Count)
system.cpu.icache.ReadReq.mshrMisses::cpu.inst          806                       # number of ReadReq MSHR misses (Count)
system.cpu.icache.ReadReq.mshrMisses::total          806                       # number of ReadReq MSHR misses (Count)
system.cpu.icache.ReadReq.mshrMissLatency::cpu.inst     48190000                       # number of ReadReq MSHR miss ticks (Tick)
system.cpu.icache.ReadReq.mshrMissLatency::total     48190000                       # number of ReadReq MSHR miss ticks (Tick)
system.cpu.icache.ReadReq.mshrMissRate::cpu.inst     0.135942                       # mshr miss rate for ReadReq accesses (Ratio)
system.cpu.icache.ReadReq.mshrMissRate::total     0.135942                       # mshr miss rate for ReadReq accesses (Ratio)
system.cpu.icache.ReadReq.avgMshrMissLatency::cpu.inst 59789.081886                       # average ReadReq mshr miss latency ((Tick/Count))
system.cpu.icache.ReadReq.avgMshrMissLatency::total 59789.081886                       # average ReadReq mshr miss latency ((Tick/Count))
system.cpu.icache.power_state.pwrStateResidencyTicks::UNDEFINED     62137000                       # Cumulative time (in ticks) in various power states (Tick)
system.cpu.icache.tags.tagsInUse           202.723869                       # Average ticks per tags in use ((Tick/Count))
system.cpu.icache.tags.totalRefs                 5668                       # Total number of references to valid blocks. (Count)
system.cpu.icache.tags.sampledRefs                806                       # Sample count of references to valid blocks. (Count)
system.cpu.icache.tags.avgRefs               7.032258                       # Average number of references to valid blocks. ((Count/Count))
system.cpu.icache.tags.warmupTick               77000                       # The tick when the warmup percentage was hit. (Tick)
system.cpu.icache.tags.occupancies::cpu.inst   202.723869                       # Average occupied blocks per tick, per requestor ((Count/Tick))
system.cpu.icache.tags.avgOccs::cpu.inst     0.791890                       # Average percentage of cache occupancy ((Ratio/Tick))
system.cpu.icache.tags.avgOccs::total        0.791890                       # Average percentage of cache occupancy ((Ratio/Tick))
system.cpu.icache.tags.occupanciesTaskId::1024          255                       # Occupied blocks per task id (Count)
system.cpu.icache.tags.ageTaskId_1024::0           68                       # Occupied blocks per task id, per block age (Count)
system.cpu.icache.tags.ageTaskId_1024::1          187                       # Occupied blocks per task id, per block age (Count)
system.cpu.icache.tags.ratioOccsTaskId::1024     0.996094                       # Ratio of occupied blocks and all blocks, per task id (Ratio)
system.cpu.icache.tags.tagAccesses              12664                       # Number of tag accesses (Count)
system.cpu.icache.tags.dataAccesses             12664                       # Number of data accesses (Count)
system.cpu.icache.tags.power_state.pwrStateResidencyTicks::UNDEFINED     62137000                       # Cumulative time (in ticks) in various power states (Tick)
system.cpu.iew.idleCycles                           0                       # Number of cycles IEW is idle (Cycle)
system.cpu.iew.squashCycles                       978                       # Number of cycles IEW is squashing (Cycle)
system.cpu.iew.blockCycles                       4961                       # Number of cycles IEW is blocking (Cycle)
system.cpu.iew.unblockCycles                      990                       # Number of cycles IEW is unblocking (Cycle)
system.cpu.iew.dispatchedInsts                  67718                       # Number of instructions dispatched to IQ (Count)
system.cpu.iew.dispSquashedInsts                  160                       # Number of squashed instructions skipped by dispatch (Count)
system.cpu.iew.dispLoadInsts                     7877                       # Number of dispatched load instructions (Count)
system.cpu.iew.dispStoreInsts                    4259                       # Number of dispatched store instructions (Count)
system.cpu.iew.dispNonSpecInsts                     1                       # Number of dispatched non-speculative instructions (Count)
system.cpu.iew.iqFullEvents                        52                       # Number of times the IQ has become full, causing a stall (Count)
system.cpu.iew.lsqFullEvents                      907                       # Number of times the LSQ has become full, causing a stall (Count)
system.cpu.iew.memOrderViolationEvents             40                       # Number of memory order violations (Count)
system.cpu.iew.predictedTakenIncorrect            154                       # Number of branches that were predicted taken incorrectly (Count)
system.cpu.iew.predictedNotTakenIncorrect          942                       # Number of branches that were predicted not taken incorrectly (Count)
system.cpu.iew.branchMispredicts                 1096                       # Number of branch mispredicts detected at execute (Count)
system.cpu.iew.instsToCommit                    55708                       # Cumulative count of insts sent to commit (Count)
system.cpu.iew.writebackCount                   55253                       # Cumulative count of insts written-back (Count)
system.cpu.iew.producerInst                     39868                       # Number of instructions producing a value (Count)
system.cpu.iew.consumerInst                     66141                       # Number of instructions consuming a value (Count)
system.cpu.iew.wbRate                        0.889198                       # Insts written-back per cycle ((Count/Cycle))
system.cpu.iew.wbFanout                      0.602773                       # Average fanout of values written-back ((Count/Count))
system.cpu.interrupts.clk_domain.clock          16000                       # Clock period in ticks (Tick)
system.cpu.itb_walker_cache.blockedCycles::no_mshrs            0                       # number of cycles access was blocked (Cycle)
system.cpu.itb_walker_cache.blockedCycles::no_targets            0                       # number of cycles access was blocked (Cycle)
system.cpu.itb_walker_cache.blockedCauses::no_mshrs            0                       # number of times access was blocked (Count)
system.cpu.itb_walker_cache.blockedCauses::no_targets            0                       # number of times access was blocked (Count)
system.cpu.itb_walker_cache.avgBlocked::no_mshrs          nan                       # average number of cycles each access was blocked ((Cycle/Count))
system.cpu.itb_walker_cache.avgBlocked::no_targets          nan                       # average number of cycles each access was blocked ((Cycle/Count))
system.cpu.itb_walker_cache.replacements            0                       # number of replacements (Count)
system.cpu.itb_walker_cache.power_state.pwrStateResidencyTicks::UNDEFINED     62137000                       # Cumulative time (in ticks) in various power states (Tick)
system.cpu.itb_walker_cache.tags.tagsInUse            0                       # Average ticks per tags in use ((Tick/Count))
system.cpu.itb_walker_cache.tags.totalRefs            0                       # Total number of references to valid blocks. (Count)
system.cpu.itb_walker_cache.tags.sampledRefs            0                       # Sample count of references to valid blocks. (Count)
system.cpu.itb_walker_cache.tags.avgRefs          nan                       # Average number of references to valid blocks. ((Count/Count))
system.cpu.itb_walker_cache.tags.warmupTick            0                       # The tick when the warmup percentage was hit. (Tick)
system.cpu.itb_walker_cache.tags.tagAccesses            0                       # Number of tag accesses (Count)
system.cpu.itb_walker_cache.tags.dataAccesses            0                       # Number of data accesses (Count)
system.cpu.itb_walker_cache.tags.power_state.pwrStateResidencyTicks::UNDEFINED     62137000                       # Cumulative time (in ticks) in various power states (Tick)
system.cpu.lsq0.forwLoads                         340                       # Number of loads that had data forwarded from stores (Count)
system.cpu.lsq0.squashedLoads                    3935                       # Number of loads squashed (Count)
system.cpu.lsq0.ignoredResponses                    6                       # Number of memory responses ignored because the instruction is squashed (Count)
system.cpu.lsq0.memOrderViolation                  40                       # Number of memory ordering violations (Count)
system.cpu.lsq0.squashedStores                   1599                       # Number of stores squashed (Count)
system.cpu.lsq0.rescheduledLoads                    2                       # Number of loads that were rescheduled (Count)
system.cpu.lsq0.blockedByCache                     13                       # Number of times an access to memory failed due to the cache being blocked (Count)
system.cpu.lsq0.loadToUse::samples               3942                       # Distribution of cycle latency between the first time a load is issued and its completion (Unspecified)
system.cpu.lsq0.loadToUse::mean              7.811263                       # Distribution of cycle latency between the first time a load is issued and its completion (Unspecified)
system.cpu.lsq0.loadToUse::stdev            16.676996                       # Distribution of cycle latency between the first time a load is issued and its completion (Unspecified)
system.cpu.lsq0.loadToUse::0-9                   3627     92.01%     92.01% # Distribution of cycle latency between the first time a load is issued and its completion (Unspecified)
system.cpu.lsq0.loadToUse::10-19                   10      0.25%     92.26% # Distribution of cycle latency between the first time a load is issued and its completion (Unspecified)
system.cpu.lsq0.loadToUse::20-29                   12      0.30%     92.57% # Distribution of cycle latency between the first time a load is issued and its completion (Unspecified)
system.cpu.lsq0.loadToUse::30-39                   16      0.41%     92.97% # Distribution of cycle latency between the first time a load is issued and its completion (Unspecified)
system.cpu.lsq0.loadToUse::40-49                   15      0.38%     93.35% # Distribution of cycle latency between the first time a load is issued and its completion (Unspecified)
system.cpu.lsq0.loadToUse::50-59                  154      3.91%     97.26% # Distribution of cycle latency between the first time a load is issued and its completion (Unspecified)
system.cpu.lsq0.loadToUse::60-69                   31      0.79%     98.05% # Distribution of cycle latency between the first time a load is issued and its completion (Unspecified)
system.cpu.lsq0.loadToUse::70-79                   19      0.48%     98.53% # Distribution of cycle latency between the first time a load is issued and its completion (Unspecified)
system.cpu.lsq0.loadToUse::80-89                   39      0.99%     99.52% # Distribution of cycle latency between the first time a load is issued and its completion (Unspecified)
system.cpu.lsq0.loadToUse::90-99                    1      0.03%     99.54% # Distribution of cycle latency between the first time a load is issued and its completion (Unspecified)
system.cpu.lsq0.loadToUse::100-109                 10      0.25%     99.80% # Distribution of cycle latency between the first time a load is issued and its completion (Unspecified)
system.cpu.lsq0.loadToUse::110-119                  1      0.03%     99.82% # Distribution of cycle latency between the first time a load is issued and its completion (Unspecified)
system.cpu.lsq0.loadToUse::120-129                  3      0.08%     99.90% # Distribution of cycle latency between the first time a load is issued and its completion (Unspecified)
[...]
system.mem_ctrls.dram.bwWrite::total         99908267                       # Write bandwidth from this memory ((Byte/Second))
system.mem_ctrls.dram.bwTotal::writebacks     99908267                       # Total bandwidth to/from this memory ((Byte/Second))
system.mem_ctrls.dram.bwTotal::cpu.inst     830165602                       # Total bandwidth to/from this memory ((Byte/Second))
system.mem_ctrls.dram.bwTotal::cpu.data     494391425                       # Total bandwidth to/from this memory ((Byte/Second))
system.mem_ctrls.dram.bwTotal::total       1424465294                       # Total bandwidth to/from this memory ((Byte/Second))
system.mem_ctrls.dram.readBursts                 1258                       # Number of DRAM read bursts (Count)
system.mem_ctrls.dram.writeBursts                 625                       # Number of DRAM write bursts (Count)
system.mem_ctrls.dram.perBankRdBursts::0           95                       # Per bank write bursts (Count)
system.mem_ctrls.dram.perBankRdBursts::1           49                       # Per bank write bursts (Count)
system.mem_ctrls.dram.perBankRdBursts::2           57                       # Per bank write bursts (Count)
system.mem_ctrls.dram.perBankRdBursts::3           34                       # Per bank write bursts (Count)
system.mem_ctrls.dram.perBankRdBursts::4           83                       # Per bank write bursts (Count)
system.mem_ctrls.dram.perBankRdBursts::5           94                       # Per bank write bursts (Count)
system.mem_ctrls.dram.perBankRdBursts::6           47                       # Per bank write bursts (Count)
system.mem_ctrls.dram.perBankRdBursts::7           80                       # Per bank write bursts (Count)
system.mem_ctrls.dram.perBankRdBursts::8           27                       # Per bank write bursts (Count)
system.mem_ctrls.dram.perBankRdBursts::9           45                       # Per bank write bursts (Count)
system.mem_ctrls.dram.perBankRdBursts::10           89                       # Per bank write bursts (Count)
system.mem_ctrls.dram.perBankRdBursts::11           92                       # Per bank write bursts (Count)
system.mem_ctrls.dram.perBankRdBursts::12          140                       # Per bank write bursts (Count)
system.mem_ctrls.dram.perBankRdBursts::13          120                       # Per bank write bursts (Count)
system.mem_ctrls.dram.perBankRdBursts::14           71                       # Per bank write bursts (Count)
system.mem_ctrls.dram.perBankRdBursts::15          135                       # Per bank write bursts (Count)
system.mem_ctrls.dram.perBankWrBursts::0           22                       # Per bank write bursts (Count)
system.mem_ctrls.dram.perBankWrBursts::1           40                       # Per bank write bursts (Count)
system.mem_ctrls.dram.perBankWrBursts::2           27                       # Per bank write bursts (Count)
system.mem_ctrls.dram.perBankWrBursts::3           15                       # Per bank write bursts (Count)
system.mem_ctrls.dram.perBankWrBursts::4           21                       # Per bank write bursts (Count)
system.mem_ctrls.dram.perBankWrBursts::5           34                       # Per bank write bursts (Count)
system.mem_ctrls.dram.perBankWrBursts::6           16                       # Per bank write bursts (Count)
system.mem_ctrls.dram.perBankWrBursts::7           44                       # Per bank write bursts (Count)
system.mem_ctrls.dram.perBankWrBursts::8           18                       # Per bank write bursts (Count)
system.mem_ctrls.dram.perBankWrBursts::9           34                       # Per bank write bursts (Count)
system.mem_ctrls.dram.perBankWrBursts::10           45                       # Per bank write bursts (Count)
system.mem_ctrls.dram.perBankWrBursts::11           71                       # Per bank write bursts (Count)
system.mem_ctrls.dram.perBankWrBursts::12          106                       # Per bank write bursts (Count)
system.mem_ctrls.dram.perBankWrBursts::13           35                       # Per bank write bursts (Count)
system.mem_ctrls.dram.perBankWrBursts::14           44                       # Per bank write bursts (Count)
system.mem_ctrls.dram.perBankWrBursts::15           53                       # Per bank write bursts (Count)
system.mem_ctrls.dram.totQLat                11938250                       # Total ticks spent queuing (Tick)
system.mem_ctrls.dram.totBusLat               6290000                       # Total ticks spent in databus transfers (Tick)
system.mem_ctrls.dram.totMemAccLat           35525750                       # Total ticks spent from burst creation until serviced by the DRAM (Tick)
system.mem_ctrls.dram.avgQLat                 9489.86                       # Average queueing delay per DRAM burst ((Tick/Count))
system.mem_ctrls.dram.avgBusLat               5000.00                       # Average bus latency per DRAM burst ((Tick/Count))
system.mem_ctrls.dram.avgMemAccLat           28239.86                       # Average memory access latency per DRAM burst ((Tick/Count))
system.mem_ctrls.dram.readRowHits                1036                       # Number of row buffer hits during reads (Count)
system.mem_ctrls.dram.writeRowHits                540                       # Number of row buffer hits during writes (Count)
system.mem_ctrls.dram.readRowHitRate            82.35                       # Row buffer hit rate for reads (Ratio)
system.mem_ctrls.dram.writeRowHitRate           86.40                       # Row buffer hit rate for writes (Ratio)
system.mem_ctrls.dram.bytesPerActivate::samples          293                       # Bytes accessed per row activation (Byte)
system.mem_ctrls.dram.bytesPerActivate::mean   397.979522                       # Bytes accessed per row activation (Byte)
system.mem_ctrls.dram.bytesPerActivate::gmean   258.708380                       # Bytes accessed per row activation (Byte)
system.mem_ctrls.dram.bytesPerActivate::stdev   339.153276                       # Bytes accessed per row activation (Byte)
system.mem_ctrls.dram.bytesPerActivate::0-127           65     22.18%     22.18% # Bytes accessed per row activation (Byte)
system.mem_ctrls.dram.bytesPerActivate::128-255           63     21.50%     43.69% # Bytes accessed per row activation (Byte)
system.mem_ctrls.dram.bytesPerActivate::256-383           38     12.97%     56.66% # Bytes accessed per row activation (Byte)
system.mem_ctrls.dram.bytesPerActivate::384-511           31     10.58%     67.24% # Bytes accessed per row activation (Byte)
system.mem_ctrls.dram.bytesPerActivate::512-639           23      7.85%     75.09% # Bytes accessed per row activation (Byte)
system.mem_ctrls.dram.bytesPerActivate::640-767           13      4.44%     79.52% # Bytes accessed per row activation (Byte)
system.mem_ctrls.dram.bytesPerActivate::768-895           10      3.41%     82.94% # Bytes accessed per row activation (Byte)
system.mem_ctrls.dram.bytesPerActivate::896-1023            5      1.71%     84.64% # Bytes accessed per row activation (Byte)
system.mem_ctrls.dram.bytesPerActivate::1024-1151           45     15.36%    100.00% # Bytes accessed per row activation (Byte)
system.mem_ctrls.dram.bytesPerActivate::total          293                       # Bytes accessed per row activation (Byte)
system.mem_ctrls.dram.bytesRead                 80512                       # Total bytes read (Byte)
system.mem_ctrls.dram.bytesWritten              40000                       # Total bytes written (Byte)
system.mem_ctrls.dram.avgRdBW             1295.717527                       # Average DRAM read bandwidth in MiBytes/s ((Byte/Second))
system.mem_ctrls.dram.avgWrBW              643.738835                       # Average DRAM write bandwidth in MiBytes/s ((Byte/Second))
system.mem_ctrls.dram.peakBW                 12800.00                       # Theoretical peak bandwidth in MiByte/s ((Byte/Second))
system.mem_ctrls.dram.busUtil                   15.15                       # Data bus utilization in percentage (Ratio)
system.mem_ctrls.dram.busUtilRead               10.12                       # Data bus utilization in percentage for reads (Ratio)
system.mem_ctrls.dram.busUtilWrite               5.03                       # Data bus utilization in percentage for writes (Ratio)
system.mem_ctrls.dram.pageHitRate               83.70                       # Row buffer hit rate, read and write combined (Ratio)
system.mem_ctrls.dram.power_state.pwrStateResidencyTicks::UNDEFINED     62137000                       # Cumulative time (in ticks) in various power states (Tick)
system.mem_ctrls.dram.rank0.actEnergy          892500                       # Energy for activate commands per rank (pJ) (Joule)
system.mem_ctrls.dram.rank0.preEnergy          447810                       # Energy for precharge commands per rank (pJ) (Joule)
system.mem_ctrls.dram.rank0.readEnergy        3848460                       # Energy for read commands per rank (pJ) (Joule)
system.mem_ctrls.dram.rank0.writeEnergy       1143180                       # Energy for write commands per rank (pJ) (Joule)
system.mem_ctrls.dram.rank0.refreshEnergy 4302480.000000                       # Energy for refresh commands per rank (pJ) (Joule)
system.mem_ctrls.dram.rank0.actBackEnergy     26381310                       # Energy for active background per rank (pJ) (Joule)
system.mem_ctrls.dram.rank0.preBackEnergy      1644960                       # Energy for precharge background per rank (pJ) (Joule)
system.mem_ctrls.dram.rank0.actPowerDownEnergy            0                       # Energy for active power-down per rank (pJ) (Joule)
system.mem_ctrls.dram.rank0.prePowerDownEnergy            0                       # Energy for precharge power-down per rank (pJ) (Joule)
system.mem_ctrls.dram.rank0.selfRefreshEnergy            0                       # Energy for self refresh per rank (pJ) (Joule)
system.mem_ctrls.dram.rank0.totalEnergy      38660700                       # Total energy per rank (pJ) (Joule)
system.mem_ctrls.dram.rank0.averagePower   622.184850                       # Core power per rank (mW) (Watt)
system.mem_ctrls.dram.rank0.totalIdleTime            0                       # Total Idle time Per DRAM Rank (Tick)
system.mem_ctrls.dram.rank0.pwrStateTime::IDLE      4077000                       # Time in different power states (Tick)
system.mem_ctrls.dram.rank0.pwrStateTime::REF      1820000                       # Time in different power states (Tick)
system.mem_ctrls.dram.rank0.pwrStateTime::SREF            0                       # Time in different power states (Tick)
system.mem_ctrls.dram.rank0.pwrStateTime::PRE_PDN            0                       # Time in different power states (Tick)
system.mem_ctrls.dram.rank0.pwrStateTime::ACT     56240000                       # Time in different power states (Tick)
system.mem_ctrls.dram.rank0.pwrStateTime::ACT_PDN            0                       # Time in different power states (Tick)
system.mem_ctrls.dram.rank1.actEnergy         1299480                       # Energy for activate commands per rank (pJ) (Joule)
system.mem_ctrls.dram.rank1.preEnergy          664125                       # Energy for precharge commands per rank (pJ) (Joule)
system.mem_ctrls.dram.rank1.readEnergy        5133660                       # Energy for read commands per rank (pJ) (Joule)
system.mem_ctrls.dram.rank1.writeEnergy       2119320                       # Energy for write commands per rank (pJ) (Joule)
system.mem_ctrls.dram.rank1.refreshEnergy 4302480.000000                       # Energy for refresh commands per rank (pJ) (Joule)
system.mem_ctrls.dram.rank1.actBackEnergy     27759000                       # Energy for active background per rank (pJ) (Joule)
system.mem_ctrls.dram.rank1.preBackEnergy       484800                       # Energy for precharge background per rank (pJ) (Joule)
system.mem_ctrls.dram.rank1.actPowerDownEnergy            0                       # Energy for active power-down per rank (pJ) (Joule)
system.mem_ctrls.dram.rank1.prePowerDownEnergy            0                       # Energy for precharge power-down per rank (pJ) (Joule)
system.mem_ctrls.dram.rank1.selfRefreshEnergy            0                       # Energy for self refresh per rank (pJ) (Joule)
system.mem_ctrls.dram.rank1.totalEnergy      41762865                       # Total energy per rank (pJ) (Joule)
system.mem_ctrls.dram.rank1.averagePower   672.109452                       # Core power per rank (mW) (Watt)
system.mem_ctrls.dram.rank1.totalIdleTime            0                       # Total Idle time Per DRAM Rank (Tick)
system.mem_ctrls.dram.rank1.pwrStateTime::IDLE      1066500                       # Time in different power states (Tick)
system.mem_ctrls.dram.rank1.pwrStateTime::REF      1820000                       # Time in different power states (Tick)
system.mem_ctrls.dram.rank1.pwrStateTime::SREF            0                       # Time in different power states (Tick)
system.mem_ctrls.dram.rank1.pwrStateTime::PRE_PDN            0                       # Time in different power states (Tick)
system.mem_ctrls.dram.rank1.pwrStateTime::ACT     59250500                       # Time in different power states (Tick)
system.mem_ctrls.dram.rank1.pwrStateTime::ACT_PDN            0                       # Time in different power states (Tick)
system.mem_ctrls.power_state.pwrStateResidencyTicks::UNDEFINED     62137000                       # Cumulative time (in ticks) in various power states (Tick)
system.membus.transDist::ReadResp                1055                       # Transaction distribution (Count)
system.membus.transDist::WritebackDirty            97                       # Transaction distribution (Count)
system.membus.transDist::WritebackClean           551                       # Transaction distribution (Count)
system.membus.transDist::CleanEvict               127                       # Transaction distribution (Count)
system.membus.transDist::ReadExReq                231                       # Transaction distribution (Count)
system.membus.transDist::ReadExResp               231                       # Transaction distribution (Count)
system.membus.transDist::ReadCleanReq             806                       # Transaction distribution (Count)
system.membus.transDist::ReadSharedReq            249                       # Transaction distribution (Count)
system.membus.pktCount_system.cpu.icache.mem_side_port::system.mem_ctrls.port         2163                       # Packet count per connected requestor and responder (Count)
system.membus.pktCount_system.cpu.icache.mem_side_port::total         2163                       # Packet count per connected requestor and responder (Count)
system.membus.pktCount_system.cpu.dcache.mem_side_port::system.mem_ctrls.port         1184                       # Packet count per connected requestor and responder (Count)
system.membus.pktCount_system.cpu.dcache.mem_side_port::total         1184                       # Packet count per connected requestor and responder (Count)
system.membus.pktCount::total                    3347                       # Packet count per connected requestor and responder (Count)
system.membus.pktSize_system.cpu.icache.mem_side_port::system.mem_ctrls.port        86848                       # Cumulative packet size per connected requestor and responder (Byte)
system.membus.pktSize_system.cpu.icache.mem_side_port::total        86848                       # Cumulative packet size per connected requestor and responder (Byte)
system.membus.pktSize_system.cpu.dcache.mem_side_port::system.mem_ctrls.port        36928                       # Cumulative packet size per connected requestor and responder (Byte)
system.membus.pktSize_system.cpu.dcache.mem_side_port::total        36928                       # Cumulative packet size per connected requestor and responder (Byte)
system.membus.pktSize::total                   123776                       # Cumulative packet size per connected requestor and responder (Byte)
system.membus.snoops                                0                       # Total snoops (Count)
system.membus.snoopTraffic                          0                       # Total snoop traffic (Byte)
system.membus.snoopFanout::samples               1286                       # Request fanout histogram (Count)
system.membus.snoopFanout::mean              0.001555                       # Request fanout histogram (Count)
system.membus.snoopFanout::stdev             0.039421                       # Request fanout histogram (Count)
system.membus.snoopFanout::underflows               0      0.00%      0.00% # Request fanout histogram (Count)
system.membus.snoopFanout::0                     1284     99.84%     99.84% # Request fanout histogram (Count)
system.membus.snoopFanout::1                        2      0.16%    100.00% # Request fanout histogram (Count)
system.membus.snoopFanout::2                        0      0.00%    100.00% # Request fanout histogram (Count)
system.membus.snoopFanout::3                        0      0.00%    100.00% # Request fanout histogram (Count)
system.membus.snoopFanout::4                        0      0.00%    100.00% # Request fanout histogram (Count)
system.membus.snoopFanout::overflows                0      0.00%    100.00% # Request fanout histogram (Count)
system.membus.snoopFanout::min_value                0                       # Request fanout histogram (Count)
system.membus.snoopFanout::max_value                1                       # Request fanout histogram (Count)
system.membus.snoopFanout::total                 1286                       # Request fanout histogram (Count)
system.membus.power_state.pwrStateResidencyTicks::UNDEFINED     62137000                       # Cumulative time (in ticks) in various power states (Tick)
system.membus.reqLayer2.occupancy             4653000                       # Layer occupancy (ticks) (Tick)
system.membus.reqLayer2.utilization               0.1                       # Layer utilization (Ratio)
system.membus.respLayer1.occupancy            4258000                       # Layer occupancy (ticks) (Tick)
system.membus.respLayer1.utilization              0.1                       # Layer utilization (Ratio)
system.membus.respLayer2.occupancy            2558000                       # Layer occupancy (ticks) (Tick)
system.membus.respLayer2.utilization              0.0                       # Layer utilization (Ratio)
system.membus.snoop_filter.totRequests           2061                       # Total number of requests made to the snoop filter. (Count)
system.membus.snoop_filter.hitSingleRequests          775                       # Number of requests hitting in the snoop filter with a single holder of the requested data. (Count)
system.membus.snoop_filter.hitMultiRequests            2                       # Number of requests hitting in the snoop filter with multiple (>1) holders of the requested data. (Count)
system.membus.snoop_filter.totSnoops                0                       # Total number of snoops made to the snoop filter. (Count)
system.membus.snoop_filter.hitSingleSnoops            0                       # Number of snoops hitting in the snoop filter with a single holder of the requested data. (Count)
system.membus.snoop_filter.hitMultiSnoops            0                       # Number of snoops hitting in the snoop filter with multiple (>1) holders of the requested data. (Count)
system.voltage_domain.voltage                       1                       # Voltage in Volts (Volt)
system.workload.inst.arm                            0                       # number of arm instructions executed (Count)
system.workload.inst.quiesce                        0                       # number of quiesce instructions executed (Count)

---------- End Simulation Statistics   ----------
